                                  MODFLOW-NWT-SWR1 
      U.S. GEOLOGICAL SURVEY MODULAR FINITE-DIFFERENCE GROUNDWATER-FLOW MODEL
                            VERSION 1.1.3, 8/01/2017
                    BASED ON MODFLOW-2005 VERSION 1.11.00 08/08/2013

 LIST FILE: wellsuppirr.lst
                         UNIT    9

 OPENING wellsuppirr.ba6
 FILE TYPE:BAS6   UNIT   75   STATUS:OLD    
 FORMAT:FORMATTED              ACCESS:SEQUENTIAL          

 OPENING wellsuppirr.upw
 FILE TYPE:UPW   UNIT    7   STATUS:OLD    
 FORMAT:FORMATTED              ACCESS:SEQUENTIAL          

 OPENING wellsuppirr.dis
 FILE TYPE:DIS   UNIT    8   STATUS:OLD    
 FORMAT:FORMATTED              ACCESS:SEQUENTIAL          

 OPENING wellsuppirr.nwt
 FILE TYPE:NWT   UNIT   13   STATUS:OLD    
 FORMAT:FORMATTED              ACCESS:SEQUENTIAL          

 OPENING wellsuppirr.oc
 FILE TYPE:OC   UNIT   14   STATUS:OLD    
 FORMAT:FORMATTED              ACCESS:SEQUENTIAL          

 OPENING wellsuppirr.sfr
 FILE TYPE:SFR   UNIT   15   STATUS:OLD    
 FORMAT:FORMATTED              ACCESS:SEQUENTIAL          

 OPENING wellsuppirr.wel
 FILE TYPE:WEL   UNIT   16   STATUS:OLD    
 FORMAT:FORMATTED              ACCESS:SEQUENTIAL          

 OPENING wellsuppirr.ghb
 FILE TYPE:GHB   UNIT   17   STATUS:OLD    
 FORMAT:FORMATTED              ACCESS:SEQUENTIAL          

 OPENING wellsuppirr.uzf
 FILE TYPE:UZF   UNIT   19   STATUS:OLD    
 FORMAT:FORMATTED              ACCESS:SEQUENTIAL          

 OPENING wellsuppirr.gag
 FILE TYPE:GAGE   UNIT   32   STATUS:OLD    
 FORMAT:FORMATTED              ACCESS:SEQUENTIAL          

 OPENING seg1.tab
 FILE TYPE:DATA   UNIT   55   STATUS:UNKNOWN
 FORMAT:FORMATTED              ACCESS:SEQUENTIAL          

 OPENING seg9.tab
 FILE TYPE:DATA   UNIT   56   STATUS:UNKNOWN
 FORMAT:FORMATTED              ACCESS:SEQUENTIAL          

 OPENING wellsuppirr.ago
 FILE TYPE:AGO   UNIT   57   STATUS:OLD    
 FORMAT:FORMATTED              ACCESS:SEQUENTIAL          

 OPENING wellsuppirr.sup
 FILE TYPE:DATA   UNIT   60   STATUS:UNKNOWN
 FORMAT:FORMATTED              ACCESS:SEQUENTIAL          

 OPENING wellsuppirr.hed
 FILE TYPE:DATA   UNIT   62   STATUS:UNKNOWN
 FORMAT:FORMATTED              ACCESS:SEQUENTIAL          

 OPENING wellsuppirr.uzfot
 FILE TYPE:DATA(BINARY)   UNIT   61   STATUS:UNKNOWN
 FORMAT:BINARY                 ACCESS:SEQUENTIAL          

 OPENING netfluxin.unf
 FILE TYPE:DATA(BINARY)   UNIT  100   STATUS:UNKNOWN
 FORMAT:BINARY                 ACCESS:SEQUENTIAL          

 OPENING netfluxout.unf
 FILE TYPE:DATA(BINARY)   UNIT  101   STATUS:UNKNOWN
 FORMAT:BINARY                 ACCESS:SEQUENTIAL          

 OPENING cbc.unf
 FILE TYPE:DATA(BINARY)   UNIT  102   STATUS:UNKNOWN
 FORMAT:BINARY                 ACCESS:SEQUENTIAL          

 OPENING wellsuppirr.uzf1
 FILE TYPE:DATA   UNIT   65   STATUS:UNKNOWN
 FORMAT:FORMATTED              ACCESS:SEQUENTIAL          

 OPENING wellsuppirr.uzf2
 FILE TYPE:DATA   UNIT   66   STATUS:UNKNOWN
 FORMAT:FORMATTED              ACCESS:SEQUENTIAL          

 OPENING wellsuppirr.uzf3
 FILE TYPE:DATA   UNIT   67   STATUS:UNKNOWN
 FORMAT:FORMATTED              ACCESS:SEQUENTIAL          

 OPENING wellsuppirr.uzf4
 FILE TYPE:DATA   UNIT   68   STATUS:UNKNOWN
 FORMAT:FORMATTED              ACCESS:SEQUENTIAL          

 OPENING wellsuppirr.flw
 FILE TYPE:DATA   UNIT   81   STATUS:UNKNOWN
 FORMAT:FORMATTED              ACCESS:SEQUENTIAL          

 OPENING wellsuppirr.sg1
 FILE TYPE:DATA   UNIT   83   STATUS:UNKNOWN
 FORMAT:FORMATTED              ACCESS:SEQUENTIAL          

 OPENING wellsuppirr.sg2
 FILE TYPE:DATA   UNIT   84   STATUS:UNKNOWN
 FORMAT:FORMATTED              ACCESS:SEQUENTIAL          

 OPENING wellsuppirr.sg3
 FILE TYPE:DATA   UNIT   85   STATUS:UNKNOWN
 FORMAT:FORMATTED              ACCESS:SEQUENTIAL          

 OPENING wellsuppirr.sg4
 FILE TYPE:DATA   UNIT   86   STATUS:UNKNOWN
 FORMAT:FORMATTED              ACCESS:SEQUENTIAL          

 OPENING wellsuppirr.sg5
 FILE TYPE:DATA   UNIT   87   STATUS:UNKNOWN
 FORMAT:FORMATTED              ACCESS:SEQUENTIAL          

 OPENING wellsuppirr.sg6
 FILE TYPE:DATA   UNIT   88   STATUS:UNKNOWN
 FORMAT:FORMATTED              ACCESS:SEQUENTIAL          

 OPENING wellsuppirr.sg7
 FILE TYPE:DATA   UNIT   89   STATUS:UNKNOWN
 FORMAT:FORMATTED              ACCESS:SEQUENTIAL          

 OPENING wellsuppirr.sg8
 FILE TYPE:DATA   UNIT   90   STATUS:UNKNOWN
 FORMAT:FORMATTED              ACCESS:SEQUENTIAL          

 OPENING wellsuppirr.sg9
 FILE TYPE:DATA   UNIT   91   STATUS:UNKNOWN
 FORMAT:FORMATTED              ACCESS:SEQUENTIAL          

 BAS -- BASIC PACKAGE, VERSION 1.1.3, 8/01/2017 INPUT READ FROM UNIT   75
 
 MODFLOW was compiled using mixed precision
 Precision of REAL variables:           6
 Precision of DOUBLE PRECISION variables:          15

 DISCRETIZATION INPUT DATA READ FROM UNIT    8
 #Test problem 2-- Discretization input
 #Example problem using the UZF1 Package
    1 LAYERS        15 ROWS        10 COLUMNS
   25 STRESS PERIOD(S) IN SIMULATION
 MODEL TIME UNIT IS SECONDS
 MODEL LENGTH UNIT IS FEET
  Confining bed flag for each layer:
   0

                     DELR =   5000.00    

                     DELC =   5000.00    



           TOP ELEVATION OF LAYER 1
 READING ON UNIT    8 WITH FORMAT: (10F7.0)            

            1           2           3           4           5           6           7           8           9          10
 ........................................................................................................................
   1    1105.       1105.       0.000       0.000       0.000       0.000       0.000       0.000       0.000       0.000    
   2    1105.       1095.       1105.       0.000       0.000       1100.       1100.       1110.       0.000       0.000    
   3    0.000       1100.       1085.       1080.       1078.       1076.       1073.       1090.       0.000       0.000    
   4    1110.       1100.       1090.       1085.       1076.       1080.       1080.       1070.       1100.       0.000    
   5    1110.       1100.       1085.       1080.       1078.       1074.       1077.       1066.       1075.       1080.    
   6    1105.       1095.       1080.       1077.       1073.       1069.       1070.       1063.       1085.       1095.    
   7    1105.       1090.       1075.       1072.       1070.       1065.       1065.       1069.       1090.       0.000    
   8    0.000       1080.       1070.       1068.       1063.       1060.       1063.       1067.       1090.       0.000    
   9    0.000       1075.       1065.       1062.       1058.       1052.       1055.       1065.       1090.       0.000    
  10    0.000       1070.       1060.       1055.       1046.       1046.       1044.       1060.       1088.       1100.    
  11    0.000       1055.       1050.       1045.       1041.       1042.       1040.       1050.       1075.       0.000    
  12    1027.       1028.       1028.       1032.       1032.       1033.       1032.       1040.       1060.       0.000    
  13    997.0       1004.       1008.       1014.       1020.       1027.       1032.       1038.       1050.       0.000    
  14    0.000       1030.       1040.       1045.       1050.       1050.       1050.       1050.       1044.       0.000    
  15    0.000       0.000       1080.       1080.       1080.       1080.       0.000       0.000       0.000       0.000    



             MODEL LAYER BOTTOM EL. FOR LAYER   1
 READING ON UNIT    8 WITH FORMAT: (10F7.0)            

            1           2           3           4           5           6           7           8           9          10
 ........................................................................................................................
   1    1000.       1000.       0.000       0.000       0.000       0.000       0.000       0.000       0.000       0.000    
   2    1000.       900.0       900.0       0.000       0.000       950.0       950.0       950.0       0.000       0.000    
   3    0.000       850.0       670.0       680.0       680.0       770.0       770.0       890.0       0.000       0.000    
   4    925.0       850.0       650.0       650.0       650.0       680.0       740.0       850.0       950.0       0.000    
   5    925.0       800.0       650.0       600.0       600.0       600.0       650.0       720.0       850.0       950.0    
   6    925.0       800.0       650.0       600.0       550.0       600.0       650.0       720.0       850.0       970.0    
   7    925.0       800.0       650.0       600.0       550.0       600.0       650.0       720.0       950.0       0.000    
   8    0.000       850.0       700.0       650.0       570.0       600.0       700.0       850.0       950.0       0.000    
   9    0.000       850.0       700.0       650.0       540.0       580.0       700.0       850.0       950.0       0.000    
  10    0.000       850.0       700.0       630.0       530.0       580.0       650.0       800.0       900.0       950.0    
  11    0.000       850.0       700.0       620.0       580.0       620.0       700.0       800.0       900.0       0.000    
  12    900.0       830.0       710.0       640.0       600.0       650.0       700.0       800.0       900.0       0.000    
  13    900.0       810.0       750.0       700.0       650.0       700.0       750.0       800.0       900.0       0.000    
  14    0.000       950.0       850.0       850.0       850.0       850.0       850.0       850.0       850.0       0.000    
  15    0.000       0.000       950.0       950.0       950.0       950.0       0.000       0.000       0.000       0.000    


 STRESS PERIOD     LENGTH       TIME STEPS     MULTIPLIER FOR DELT    SS FLAG
 ----------------------------------------------------------------------------
        1         86400.00          1                    1.000         SS
        2         2628000.         30                    1.000         TR
        3         2628000.         30                    1.000         TR
        4         2628000.         30                    1.000         TR
        5         2628000.         30                    1.000         TR
        6         2628000.         30                    1.000         TR
        7         2628000.         30                    1.000         TR
        8         2628000.         30                    1.000         TR
        9         2628000.         30                    1.000         TR
       10         2628000.         30                    1.000         TR
       11         2628000.         30                    1.000         TR
       12         2628000.         30                    1.000         TR
       13         2628000.         30                    1.000         TR
       14         2628000.         30                    1.000         TR
       15         2628000.         30                    1.000         TR
       16         2628000.         30                    1.000         TR
       17         2628000.         30                    1.000         TR
       18         2628000.         30                    1.000         TR
       19         2628000.         30                    1.000         TR
       20         2628000.         30                    1.000         TR
       21         2628000.         30                    1.000         TR
       22         2628000.         30                    1.000         TR
       23         2628000.         30                    1.000         TR
       24         2628000.         30                    1.000         TR
       25         2628000.         30                    1.000         TR

 COMBINED STEADY-STATE AND TRANSIENT SIMULATION



 
 #Test Simulation 2-- Example problem using the UZF1 Package                     
 #Modified from example Problem 1 of SFR1 documentation report                   
 THE FREE FORMAT OPTION HAS BEEN SELECTED



                     BOUNDARY ARRAY FOR LAYER   1
 READING ON UNIT   75 WITH FORMAT: (20I4)              

                1           2           3           4           5           6           7           8           9          10
 ............................................................................................................................
   1            1           1           0           0           0           0           0           0           0           0
   2            1           1           1           0           0           1           1           1           0           0
   3            0           1           1           1           1           1           1           1           0           0
   4            1           1           1           1           1           1           1           1           1           0
   5            1           1           1           1           1           1           1           1           1           1
   6            1           1           1           1           1           1           1           1           1           1
   7            1           1           1           1           1           1           1           1           1           0
   8            0           1           1           1           1           1           1           1           1           0
   9            0           1           1           1           1           1           1           1           1           0
  10            0           1           1           1           1           1           1           1           1           1
  11            0           1           1           1           1           1           1           1           1           0
  12            1           1           1           1           1           1           1           1           1           0
  13            1           1           1           1           1           1           1           1           1           0
  14            0           1           1           1           1           1           1           1           1           0
  15            0           0           1           1           1           1           0           0           0           0

 AQUIFER HEAD WILL BE SET TO   6999.0     AT ALL NO-FLOW NODES (IBOUND=0).



                       INITIAL HEAD FOR LAYER   1
 READING ON UNIT   75 WITH FORMAT: (10F8.0)            

            1           2           3           4           5           6           7           8           9          10
 ........................................................................................................................
   1    1093.       1089.       6999.       6999.       6999.       6999.       6999.       6999.       6999.       6999.    
   2    1090.       1087.       1081.       6999.       6999.       1072.       1071.       1071.       6999.       6999.    
   3    6999.       1079.       1078.       1074.       1072.       1071.       1069.       1068.       6999.       6999.    
   4    1069.       1071.       1070.       1067.       1065.       1064.       1064.       1066.       1066.       6999.    
   5    1065.       1064.       1063.       1062.       1061.       1061.       1060.       1062.       1066.       1068.    
   6    1060.       1058.       1057.       1056.       1056.       1057.       1057.       1059.       1062.       1066.    
   7    1056.       1053.       1052.       1051.       1051.       1052.       1053.       1055.       1056.       6999.    
   8    6999.       1046.       1046.       1046.       1046.       1046.       1048.       1050.       1050.       6999.    
   9    6999.       1039.       1039.       1039.       1040.       1041.       1042.       1043.       1044.       6999.    
  10    6999.       1031.       1032.       1033.       1034.       1035.       1037.       1038.       1039.       1042.    
  11    6999.       1021.       1023.       1027.       1029.       1030.       1032.       1034.       1036.       6999.    
  12    1001.       1009.       1015.       1020.       1023.       1026.       1029.       1030.       1034.       6999.    
  13    994.5      1000.0       1007.       1013.       1019.       1024.       1029.       1034.       1036.       6999.    
  14    6999.       1004.       1009.       1014.       1019.       1024.       1029.       1035.       1039.       6999.    
  15    6999.       6999.       1012.       1015.       1019.       1022.       6999.       6999.       6999.       6999.    

 OUTPUT CONTROL IS SPECIFIED ONLY AT TIME STEPS FOR WHICH OUTPUT IS DESIRED
 HEADS WILL BE SAVED WITH FORMAT: (10F10.3)           
 SAVED HEADS WILL BE LABELED
 HEAD PRINT FORMAT CODE IS   4    DRAWDOWN PRINT FORMAT CODE IS   0
 HEADS WILL BE SAVED ON UNIT   62    DRAWDOWNS WILL BE SAVED ON UNIT    0
 # NWT Input File
 # Test Problem 3 for MODFLOW-NWT
 #HEADTOL  FLUXTOL MAXITEROUT THICKFACT LINMETH IPRNWT IBOTAV OPTIONS DBDREDUCE DBDINCREASE DBDGAMMA MOMFACT BACKFLAG MAXBACKITER BACKTOL BACKREDUCE

 NWT1 -- Newton Solver, VERSION 1.1.3, 8/01/2017
         INPUT READ FROM UNIT 13

 SPECIFIED OPTION:
 SOLVER INPUT VALUES ARE SPECIFIED BY USER
 ***XMD linear solver will be used***
 
   CONVERGENCE CRITERION OF   0.100000E-04 FOR HEAD SOLUTION
   AND A TOLERANCE OF   0.100000E+03 FOR FLOW SOLUTION AND 
   A MAXIMUM OF   200 OUTER ITERATIONS. 


   D-B-D REDUCTION FACTOR OF    0.990000E+00 AND 
   A D-B-D INCREASE FACTOR OF    0.100000E-04 AND 
   A D-B-D RELAXATION OF    0.000000E+00 AND 
   A MOMENTUM FACTOR OF    0.100000E+00 .


 ***BACKTRACKING IS INACTIVE***
 XMD -- LINEAR SOLUTION BY XMD PACKAGE VERSION 1.30
     BY MOTOMU IBARAKI, OHIO STATE UNIVERSITY, COLOMBUS, OH
                 INPUT READ FROM UNIT 13
 ACCELERATION METHOD                    (IACL) =         2
 NODE ORDERING FLAG                   (NORDER) =         0
 LEVEL OF FILL                         (LEVEL) =        10
 MAXIMUM NUMBER OF ORTHOGONALIZATIONS  (NORTH) =        10
 INDEX FOR USING REDUCED SYSTEM      (IREDSYS) =         1
 RESID. REDUCTION CONVERGE CRITERION  (RRCTOL) =  0.000000E+00
 INDEX FOR USING DROP TOLERANCE     (IDROPTOL) =         1
 DROP TOLERANCE VALUE                  (EPSRN) =  0.500000E-02
 CONVERGENCE CRITERIA OF           (HCLOSEXMD) =  0.100000E-03
 MAX. NUMBER OF LINEAR ITERATIONS  (MXITERXMD) =        50


 UPW1 -- UPSTREAM WEIGHTING FLOW PACKAGE, VERSION 1.1.3, 8/01/2017
         INPUT READ FROM UNIT  7

 #Layer-Property Flow Package input for test simulation 2
 CELL-BY-CELL FLOWS WILL BE SAVED ON UNIT  102
 No named parameters

   LAYER FLAGS:
 LAYER       LAYTYP          LAYAVG    CHANI           LAYVKA           LAYWET
 ---------------------------------------------------------------------------
    1             1             0     1.000E+00             0             0

   INTERPRETATION OF LAYER FLAGS:
                        INTERBLOCK     HORIZONTAL    DATA IN
         LAYER TYPE   TRANSMISSIVITY   ANISOTROPY   ARRAY VKA   WETTABILITY
 LAYER   (LAYTYP)        (LAYAVG)      (CHANI)     (LAYVKA)       (LAYWET)
 ---------------------------------------------------------------------------
    1   CONVERTIBLE      HARMONIC     1.000E+00    VERTICAL K  NON-WETTABLE



              HYD. COND. ALONG ROWS FOR LAYER   1
 READING ON UNIT    7 WITH FORMAT: (10F5.0)            

            1           2           3           4           5           6           7           8           9          10
 ........................................................................................................................
   1   2.0000E-03  2.0000E-03   0.000       0.000       0.000       0.000       0.000       0.000       0.000       0.000    
   2   4.0000E-04  2.0000E-03  2.0000E-03   0.000       0.000      4.0000E-04  4.0000E-04  4.0000E-04   0.000       0.000    
   3    0.000      4.0000E-04  2.0000E-03  2.0000E-03  4.0000E-04  4.0000E-04  4.0000E-04  4.0000E-04   0.000       0.000    
   4   4.0000E-04  4.0000E-04  4.0000E-04  2.0000E-03  2.0000E-03  2.0000E-03  4.0000E-04  4.0000E-04  4.0000E-04   0.000    
   5   4.0000E-04  4.0000E-04  4.0000E-04  2.0000E-03  2.0000E-03  2.0000E-03  2.0000E-03  2.0000E-03  2.0000E-03  2.0000E-03
   6   4.0000E-04  4.0000E-04  4.0000E-04  2.0000E-03  2.0000E-03  2.0000E-03  2.0000E-03  2.0000E-03  4.0000E-04  4.0000E-04
   7   4.0000E-04  4.0000E-04  4.0000E-04  2.0000E-03  2.0000E-03  2.0000E-03  2.0000E-03  2.0000E-03  4.0000E-04   0.000    
   8    0.000      4.0000E-04  4.0000E-04  2.0000E-03  2.0000E-03  2.0000E-03  2.0000E-03  4.0000E-04  4.0000E-04   0.000    
   9    0.000      4.0000E-04  4.0000E-04  2.0000E-03  2.0000E-03  2.0000E-03  2.0000E-03  4.0000E-04  4.0000E-04   0.000    
  10    0.000      4.0000E-04  4.0000E-04  2.0000E-03  2.0000E-03  2.0000E-03  2.0000E-03  4.0000E-04  4.0000E-04  4.0000E-04
  11    0.000      4.0000E-04  4.0000E-04  2.0000E-03  2.0000E-03  2.0000E-03  2.0000E-03  4.0000E-04  4.0000E-04   0.000    
  12   4.0000E-04  4.0000E-04  2.0000E-03  2.0000E-03  2.0000E-03  2.0000E-03  2.0000E-03  4.0000E-04  4.0000E-04   0.000    
  13   2.0000E-03  2.0000E-03  2.0000E-03  2.0000E-03  2.0000E-03  2.0000E-03  2.0000E-03  2.0000E-03  2.0000E-03   0.000    
  14    0.000      4.0000E-04  4.0000E-04  4.0000E-04  4.0000E-04  4.0000E-04  4.0000E-04  4.0000E-04  2.0000E-03   0.000    
  15    0.000       0.000      4.0000E-04  4.0000E-04  4.0000E-04  4.0000E-04   0.000       0.000       0.000       0.000    

      VERTICAL HYD. COND. =  1.000000E-06 FOR LAYER   1

         SPECIFIC STORAGE =  1.000000E-06 FOR LAYER   1



                     SPECIFIC YIELD FOR LAYER   1
 READING ON UNIT    7 WITH FORMAT: (10F5.0)            

            1           2           3           4           5           6           7           8           9          10
 ........................................................................................................................
   1   0.2000      0.2000       0.000       0.000       0.000       0.000       0.000       0.000       0.000       0.000    
   2   0.1000      0.2000      0.2000       0.000       0.000      0.1000      0.1000      0.1000       0.000       0.000    
   3    0.000      0.1000      0.2000      0.2000      0.1000      0.1000      0.1000      0.1000       0.000       0.000    
   4   0.1000      0.1000      0.1000      0.2000      0.2000      0.2000      0.1000      0.1000      0.1000       0.000    
   5   0.1000      0.1000      0.1000      0.2000      0.2000      0.2000      0.2000      0.2000      0.2000      0.2000    
   6   0.1000      0.1000      0.1000      0.2000      0.2000      0.2000      0.2000      0.2000      0.1000      0.1000    
   7   0.1000      0.1000      0.1000      0.2000      0.2000      0.2000      0.2000      0.2000      0.1000       0.000    
   8    0.000      0.1000      0.1000      0.2000      0.2000      0.2000      0.2000      0.1000      0.1000       0.000    
   9    0.000      0.1000      0.1000      0.2000      0.2000      0.2000      0.2000      0.1000      0.1000       0.000    
  10    0.000      0.1000      0.1000      0.2000      0.2000      0.2000      0.2000      0.1000      0.1000      0.1000    
  11    0.000      0.1000      0.1000      0.2000      0.2000      0.2000      0.2000      0.1000      0.1000       0.000    
  12   0.1000      0.1000      0.2000      0.2000      0.2000      0.2000      0.2000      0.1000      0.1000       0.000    
  13   0.2000      0.2000      0.2000      0.2000      0.2000      0.2000      0.2000      0.2000      0.2000       0.000    
  14    0.000      0.1000      0.1000      0.1000      0.1000      0.1000      0.1000      0.1000      0.2000       0.000    
  15    0.000       0.000      0.1000      0.1000      0.1000      0.1000       0.000       0.000       0.000       0.000    

 WEL -- WELL PACKAGE FOR NWT VERSION 1.1.2,  9/15/2016 INPUT READ FROM UNIT   16
 #Well Package input for test simulation 2
 No named parameters
 MAXIMUM OF     10 ACTIVE WELLS AT ONE TIME
 No named parameters
  PHIRAMP WILL BE SET TO A DEFAULT VALUE OF 1.0E-5
  WELLS WITH REDUCED PUMPING WILL BE REPORTED TO THE MAIN LISTING FILE


     0 Well parameters

 GHB -- GENERAL-HEAD BOUNDARY PACKAGE, VERSION 7, 5/2/2005
         INPUT READ FROM UNIT   17
 No named parameters
 MAXIMUM OF      2 ACTIVE GHB CELLS AT ONE TIME
 CELL-BY-CELL FLOWS WILL BE PRINTED WHEN ICBCFL NOT 0


     0 GHB parameters

 SFR7 -- STREAMFLOW ROUTING PACKAGE, VERSION 1.0.5, 2012-04-05
         INPUT READ FROM UNIT  15
 #SFR2 Package input for Testing supplimental pumping and irrigation
 No named parameters

 PROCESSING SFR2 OPTIONS
 
 
Stream loss will be calculated as a factor of the streambed hydraulic conductivity. Multiplication factor is equal to     0.1000000015E+00
          2 Specified inflow files will be read with a maximum of        759 row entries per file

 END PROCESSING SFR2 OPTIONS
 


 NUMBER OF STREAM REACHES IS   37

 NUMBER OF STREAM SEGMENTS IS    9

 NUMBER OF STREAM PARAMETERS IS    0

 NUMBER OF STREAM SEGMENTS DEFINED USING PARAMETERS IS              0

 MAXIMUM ERROR FOR STREAM LEAKAGE RATES IS  1.00E-06

 CONSTANT FOR MANNINGS EQUATION IS  1.4860E+00



 STREAM OUTPUT WILL BE WRITTEN TO FILE ON UNIT   81


   STREAM NETWORK DESCRIPTION: 

   LAYER    ROW    COL   SEGMENT   REACH     LENGTH
                          NUMBER   NUMBER    IN CELL        
   --------------------------------------------------
      1      1      1       1        1    4.5000E+03
      1      2      2       1        2    7.0000E+03
      1      3      3       1        3    6.0000E+03
      1      3      4       1        4    5.5500E+03
      1      4      5       2        1    6.5000E+03
      1      5      6       2        2    5.0000E+03
      1      6      6       2        3    5.0000E+03
      1      7      6       2        4    5.0000E+03
      1      8      6       2        5    5.0000E+03
      1      3      5       3        1    5.0000E+03
      1      3      6       3        2    5.0000E+03
      1      3      7       3        3    4.5000E+03
      1      4      8       3        4    6.0000E+03
      1      5      8       3        5    5.0000E+03
      1      6      8       3        6    2.0000E+03
      1      5     10       4        1    2.5000E+03
      1      5      9       4        2    5.0000E+03
      1      6      8       4        3    3.5000E+03
      1      6      8       5        1    4.0000E+03
      1      7      7       5        2    5.0000E+03
      1      8      7       5        3    3.5000E+03
      1      8      6       5        4    2.5000E+03
      1      9      6       6        1    5.0000E+03
      1     10      7       6        2    5.0000E+03
      1     11      7       6        3    5.0000E+03
      1     12      7       6        4    5.0000E+03
      1     13      7       6        5    2.0000E+03
      1     14      9       7        1    5.0000E+03
      1     13      8       7        2    5.5000E+03
      1     13      7       7        3    5.0000E+03
      1     13      6       8        1    5.0000E+03
      1     13      5       8        2    5.0000E+03
      1     13      4       8        3    5.0000E+03
      1     13      3       8        4    5.0000E+03
      1     13      2       8        5    5.0000E+03
      1     13      1       8        6    3.0000E+03
      1      6      8       9        1    5.0000E+01




 UZF1 -- UNSATURATED FLOW PACKAGE, VERSION 1.4, 02/06/2012
         INPUT READ FROM UNIT 19
 #UZF Package input for test simulation 2
 No named parameters

 PROCESSING UZF OPTIONS
 
 
 INITIAL WATER CONTENT (THTI) WILL BE 
READ FOR THE FIRST SS OR TR STRESS PERIOD
 
 
 RESIDUAL WATER CONTENT (THTR) WILL BE 
READ AND USED FOR THE FIRST TRANSIENT STRESS 
PERIOD
 
  OUTPUT WILL BE WRITTEN TO NETRECH AND NETDIS FILES WITH UNIT NUMBERS        100       101, RESPECTIVELY
 
 A SQUARE ET FUNCTION WILL BE USED TO SIMULATE GW ET
 
 
INFILTRATION WILL BE REJECTED USING 
LAND SURFACE K
 
 
HYDRAULIC CONDUCTIVITY OF LAND SURFACE 
WILL BE READ
 

 END PROCESSING UZF OPTIONS



            AREAL EXTENT OF UZ FLOW
 READING ON UNIT   19 WITH FORMAT: (20I4)              

                1           2           3           4           5           6           7           8           9          10
 ............................................................................................................................
   1            1           1           0           0           0           0           0           0           0           0
   2            1           1           1           0           0           1           1           1           0           0
   3            0           1           1           1           1           1           1           1           0           0
   4            1           1           1           1           1           1           1           1           1           0
   5            1           1           1           1           1           1           1           1           1           1
   6            1           1           1           1           1           1           1           1           1           1
   7            1           1           1           1           1           1           1           1           1           0
   8            0           1           1           1           1           1           1           1           1           0
   9            0           1           1           1           1           1           1           1           1           0
  10            0           1           1           1           1           1           1           1           1           1
  11            0           1           1           1           1           1           1           1           1           0
  12            1           1           1           1           1           1           1           1           1           0
  13            1           1           1           1           1           1           1           1           1           0
  14            0           1           1           1           1           1           1           1           1           0
  15            0           0           1           1           1           1           0           0           0           0
 OPTION 1 -- RECHARGE IN UZF TO TOP LAYER ONLY 



            ROUTING OVERLAND RUNOFF
 READING ON UNIT   19 WITH FORMAT: (20I4)              

                1           2           3           4           5           6           7           8           9          10
 ............................................................................................................................
   1            1           1           0           0           0           0           0           0           0           0
   2            1           1           1           0           0           3           3           3           0           0
   3            0           1           1           1           3           3           3           3           0           0
   4            8           8           2           2           2           2           2           3           3           0
   5            8           8           8           8           2           2           2           3           4           4
   6            8           8           8           8           8           2           2           4           4           4
   7            8           8           8           8           8           2           5           5           5           0
   8            0           8           8           8           8           2           5           5           5           0
   9            0           8           8           8           8           6           6           6           6           0
  10            0           8           8           8           8           6           6           6           6           6
  11            0           8           8           8           8           8           6           6           7           0
  12            8           8           8           8           8           8           6           7           7           0
  13            8           8           8           8           8           8           7           7           7           0
  14            0           8           8           8           8           8           7           7           7           0
  15            0           0           8           8           8           8           0           0           0           0



               SATURATED VERTICAL K
 READING ON UNIT   19 WITH FORMAT: (10F4.0)            

            1           2           3           4           5           6           7           8           9          10
 ........................................................................................................................
   1   5.0000E-06  5.0000E-06   0.000       0.000       0.000       0.000       0.000       0.000       0.000       0.000    
   2   5.0000E-06  5.0000E-06  5.0000E-06   0.000       0.000      5.0000E-06  5.0000E-06  5.0000E-06   0.000       0.000    
   3    0.000      5.0000E-06  5.0000E-06  5.0000E-06  5.0000E-06  5.0000E-06  5.0000E-06  5.0000E-06   0.000       0.000    
   4   5.0000E-06  5.0000E-06  5.0000E-06  5.0000E-06  5.0000E-06  5.0000E-06  5.0000E-06  5.0000E-06  5.0000E-06   0.000    
   5   5.0000E-06  5.0000E-06  5.0000E-06  5.0000E-06  5.0000E-06  5.0000E-06  5.0000E-06  5.0000E-06  5.0000E-06  5.0000E-06
   6   5.0000E-06  5.0000E-06  5.0000E-06  5.0000E-06  5.0000E-06  5.0000E-06  5.0000E-06  5.0000E-06  5.0000E-06  5.0000E-06
   7   5.0000E-06  5.0000E-06  5.0000E-06  5.0000E-06  5.0000E-06  5.0000E-06  5.0000E-06  5.0000E-06  5.0000E-06   0.000    
   8    0.000      5.0000E-06  5.0000E-06  5.0000E-06  5.0000E-06  5.0000E-06  5.0000E-06  5.0000E-06  5.0000E-06   0.000    
   9    0.000      5.0000E-06  5.0000E-06  5.0000E-06  5.0000E-06  5.0000E-06  5.0000E-06  5.0000E-06  5.0000E-06   0.000    
  10    0.000      5.0000E-06  5.0000E-06  5.0000E-06  5.0000E-06  5.0000E-06  5.0000E-06  5.0000E-06  5.0000E-06  5.0000E-06
  11    0.000      5.0000E-06  5.0000E-06  5.0000E-06  5.0000E-06  5.0000E-06  5.0000E-06  5.0000E-06  5.0000E-06   0.000    
  12   5.0000E-06  5.0000E-06  5.0000E-06  5.0000E-06  5.0000E-06  5.0000E-06  5.0000E-06  5.0000E-06  5.0000E-06   0.000    
  13   5.0000E-06  5.0000E-06  5.0000E-06  5.0000E-06  5.0000E-06  5.0000E-06  5.0000E-06  5.0000E-06  5.0000E-06   0.000    
  14    0.000      5.0000E-06  5.0000E-06  5.0000E-06  5.0000E-06  5.0000E-06  5.0000E-06  5.0000E-06  5.0000E-06   0.000    
  15    0.000       0.000      5.0000E-06  5.0000E-06  5.0000E-06  5.0000E-06   0.000       0.000       0.000       0.000    



            LAND SURFACE VERTICAL K
 READING ON UNIT   19 WITH FORMAT: (10F4.0)            

            1           2           3           4           5           6           7           8           9          10
 ........................................................................................................................
   1   5.0000E-06  5.0000E-06   0.000       0.000       0.000       0.000       0.000       0.000       0.000       0.000    
   2   5.0000E-06  5.0000E-06  5.0000E-06   0.000       0.000      5.0000E-06  5.0000E-06  5.0000E-06   0.000       0.000    
   3    0.000      5.0000E-06  5.0000E-06  5.0000E-06  5.0000E-06  5.0000E-06  5.0000E-06  5.0000E-06   0.000       0.000    
   4   5.0000E-06  5.0000E-06  5.0000E-06  5.0000E-06  5.0000E-06  5.0000E-06  5.0000E-06  5.0000E-06  5.0000E-06   0.000    
   5   5.0000E-06  5.0000E-06  5.0000E-06  5.0000E-06  5.0000E-06  5.0000E-06  5.0000E-06  5.0000E-06  5.0000E-06  5.0000E-06
   6   5.0000E-06  5.0000E-06  5.0000E-06  5.0000E-06  5.0000E-06  5.0000E-06  5.0000E-06  5.0000E-06  5.0000E-06  5.0000E-06
   7   5.0000E-06  5.0000E-06  5.0000E-06  5.0000E-06  5.0000E-06  5.0000E-06  5.0000E-06  5.0000E-06  5.0000E-06   0.000    
   8    0.000      5.0000E-06  5.0000E-06  5.0000E-06  5.0000E-06  5.0000E-06  5.0000E-06  5.0000E-06  5.0000E-06   0.000    
   9    0.000      5.0000E-06  5.0000E-06  5.0000E-06  5.0000E-06  5.0000E-06  5.0000E-06  5.0000E-06  5.0000E-06   0.000    
  10    0.000      5.0000E-06  5.0000E-06  5.0000E-06  5.0000E-06  5.0000E-06  5.0000E-06  5.0000E-06  5.0000E-06  5.0000E-06
  11    0.000      5.0000E-06  5.0000E-06  5.0000E-06  5.0000E-06  5.0000E-06  5.0000E-06  5.0000E-06  5.0000E-06   0.000    
  12   5.0000E-06  5.0000E-06  5.0000E-06  5.0000E-06  5.0000E-06  5.0000E-06  5.0000E-06  5.0000E-06  5.0000E-06   0.000    
  13   5.0000E-06  5.0000E-06  5.0000E-06  5.0000E-06  5.0000E-06  5.0000E-06  5.0000E-06  5.0000E-06  5.0000E-06   0.000    
  14    0.000      5.0000E-06  5.0000E-06  5.0000E-06  5.0000E-06  5.0000E-06  5.0000E-06  5.0000E-06  5.0000E-06   0.000    
  15    0.000       0.000      5.0000E-06  5.0000E-06  5.0000E-06  5.0000E-06   0.000       0.000       0.000       0.000    

     BROOKS-COREY EPSILON =   5.50000    

  SATURATED WATER CONTENT =  0.220000    

   RESIDUAL WATER CONTENT =  5.000000E-02

    INITIAL WATER CONTENT =  0.100000    

UNSATURATED FLOW RESULTS WILL BE PRINTED TO SEPARATE FILES FOR SELECTED MODEL CELLS, AND TIME STEPS AS DEFINED BY OUTPUT CONTROL PACKAGE 

SELECTED MODEL CELLS ARE: 
 ROW NUMBER  COLUMN NUMBER  FORTRAN UNIT NUMBER  OUTPUT OPTION


       3             6                 65                 1
       6             8                 66                 2
       6             7                 67                 3
       0             0                 68                 4



   9 GAGING STATIONS WERE SPECIFIED.
     (Lakes are identified by a negative value of the Lake Number)
     RECORDS WILL BE WRITTEN TO SEPARATE OUTPUT FILES REPRESENTED BY FOLLOWING UNIT NUMBERS:

 Stream Gages:
  GAGE #   SEGMENT   REACH   UNIT   OUTTYPE
       1       1       4      83       1
       2       2       3      84       1
       3       3       5      85       1
       4       4       3      86       1
       5       5       4      87       4
       6       6       5      88       4
       7       7       3      89       4
       8       8       6      90       4
       9       9       1      91       5





 AGO -- AGO PACKAGE FOR NWT VERSION 1.1.3,  8/01/2017 INPUT READ FROM UNIT   57

 PROCESSING AGO OPTIONS
 
AGRICULTURAL DEMANDS WILL BE 
CALCULATED USING ET DEFICIT
 
  Option to apply surface water as irrigtion is active. Pumped irrigation water will be applied to          1 UZF Cells.
  Option to pump supplmental water for surface diversion shortfall is activted.  A total of          1supplemental wells are active
  Option to apply pumped water as irrigtion is active. Pumped irrigation water will be applied to          1 UZF Cells.
  The maximum number of wells for supplementing diversions or for applying irrigation is         10 wells.

 END PROCESSING AGO OPTIONS
1
                            STRESS PERIOD NO.    1, LENGTH =   86400.00    
                            -----------------------------------------------

                              NUMBER OF TIME STEPS =     1

                               MULTIPLIER FOR DELT =     1.000

                            INITIAL TIME STEP SIZE =   86400.00    

 WELL NO.  LAYER   ROW   COL   STRESS RATE         
 --------------------------------------------------
      1      1      6      4       0.000    
      2      1      6      7       0.000    
      3      1      7      4       0.000    
      4      1      7      5       0.000    
      5      1      8      4       0.000    
      6      1      8      5       0.000    
      7      1      9      4       0.000    
      8      1      9      5       0.000    
      9      1     10      4       0.000    
     10      1     10      5       0.000    

     10 WELLS

 BOUND. NO. LAYER   ROW   COL     STAGE      CONDUCTANCE         
 ----------------------------------------------------------------
      1      1     13      1       988.0          0.3800E-01
      2      1     14      9       1045.          0.3800E-01

      2 GHB CELLS



 CLASSIFICATION & COUNT OF STREAM SEGMENTS BASED ON SOURCE OF INFLOW:

                HEADWATER     DIVERSION     RECEIVES TRIBUTARY FLOW
                ---------     ---------     -----------------------
                     3              2               4



                    INPUT DATA FOR EACH STREAM SEGMENT
 ---------------------------------------------------------------------------------------------

 SEGMENT    SEG.     INFLOW   OVERLAND   STREAM    STREAM   ICALC  OUTFLOW  DIVERSION PRIORITY
    NO.    LENGTH     RATE     RUNOFF      ET       PPT.    METH.  TO SEG.  FROM SEG.    NO.

      1  2.305E+04 2.500E+01 0.000E+00 0.000E+00 0.000E+00    4        2        0        0
      2  2.650E+04 0.000E+00 0.000E+00 0.000E+00 0.000E+00    1        6        0        0
      3  2.750E+04 2.000E+00 0.000E+00 0.000E+00 0.000E+00    0        5        1        0
      4  1.100E+04 1.000E+01 0.000E+00 0.000E+00 0.000E+00    1        5        0        0
      5  1.500E+04 0.000E+00 0.000E+00 0.000E+00 0.000E+00    3        6        0        0
      6  2.200E+04 0.000E+00 0.000E+00 0.000E+00 0.000E+00    1        8        0        0
      7  1.550E+04 1.500E+02 0.000E+00 0.000E+00 0.000E+00    2        8        0        0
      8  2.800E+04 0.000E+00 0.000E+00 0.000E+00 0.000E+00    2        0        0        0
      9  5.000E+01 0.000E+00 0.000E+00 0.000E+00 0.000E+00    1        0        2        0


         STREAMBED PROPERTIES AND STREAM DIMENSIONS

 SEGMENT     BED HYD. COND.      BED THICKNESS     ELEV.-TOP OF BED     WIDTH OF STREAM     DEPTH OF STREAM    STREAM ROUGHNESS
    No.     UPPER     LOWER     UPPER     LOWER     UPPER     LOWER     UPPER     LOWER     UPPER     LOWER   CHANNEL      BANK

     1  3.000E-05 3.000E-05 3.000E+00 3.000E+00 1.095E+03 1.075E+03
     2  3.000E-05 3.000E-05 3.000E+00 3.000E+00 1.075E+03 1.050E+03 1.200E+01 1.200E+01                     3.000E-02
     3  3.000E-05 3.000E-05 2.000E+00 2.000E+00 1.075E+03 1.060E+03 1.000E+01 6.000E+00 2.000E+00 1.000E+00
     4  3.000E-05 3.000E-05 3.000E+00 3.000E+00 1.080E+03 1.060E+03 1.000E+01 1.000E+01                     3.000E-02
     5  3.000E-05 3.000E-05 3.000E+00 3.000E+00 1.060E+03 1.045E+03
     6  3.000E-05 3.000E-05 3.000E+00 3.000E+00 1.045E+03 1.025E+03 1.200E+01 1.200E+01                     3.000E-02
     7  6.000E-05 6.000E-05 3.000E+00 3.000E+00 1.040E+03 1.025E+03                                         2.500E-02 4.500E-02
     8  6.000E-05 6.000E-05 3.000E+00 3.000E+00 1.025E+03 9.900E+02                                         2.500E-02 4.500E-02
     9  0.000E+00 0.000E+00 3.000E+00 3.000E+00 1.079E+03 1.078E+03 4.000E+00 4.000E+00                     3.000E-02

  EIGHT POINT CROSS-SECTION DATA FOR SEGMENTS WITH ICALC = 2
    X VALUES X VALUES START FROM LEFT SIDE LOOKING DOWNSTREAM

     SEGMENT NO.        X1        X2        X3        X4        X5        X6        X7        X8
            7      0.000E+00 1.000E+01 8.000E+01 1.000E+02 1.500E+02 1.700E+02 2.400E+02 2.500E+02
            8      0.000E+00 1.000E+01 8.000E+01 1.000E+02 1.500E+02 1.700E+02 2.400E+02 2.500E+02

    Z VALUES ARE RELATIVE TO STREAMBED ELEVATION

     SEGMENT NO.          Z1        Z2        Z3        Z4        Z5        Z6        Z7        Z8
            7      2.000E+01 1.300E+01 1.000E+01 2.000E+00 0.000E+00 1.000E+01 1.300E+01 2.000E+01
            8      2.500E+01 1.700E+01 1.300E+01 4.000E+00 0.000E+00 1.000E+01 1.600E+01 2.000E+01

 STREAMFLOW RELATION WITH DEPTH IS BASED ON EQUATION Q = CDPTH*(DEPTH)**FDPTH
 STREAMFLOW RELATION WITH WIDTH IS BASED ON EQUATION Q = AWDTH*(WIDTH)**BWDTH

 SEGMENT NO.      CDPTH     FDPTH    AWDTH     BWDTH

          5 3.000E-01 3.500E-01 3.800E+00 6.000E-01

 STREAMFLOW RELATION WITH DEPTH AND WIDTH IS BASED ON TABULATED VALUES

  SEGMENT NO.   STREAMFLOW       DEPTH       WIDTH

          1     5.0000E-01   2.5000E-01   3.0000E+00
          1     1.0000E+00   4.0000E-01   3.5000E+00
          1     2.0000E+00   5.5000E-01   4.2000E+00
          1     4.0000E+00   7.0000E-01   5.3000E+00
          1     7.0000E+00   8.0000E-01   7.0000E+00
          1     1.0000E+01   9.0000E-01   8.5000E+00
          1     2.0000E+01   1.1000E+00   1.2000E+01
          1     3.0000E+01   1.2500E+00   1.4000E+01
          1     5.0000E+01   1.4000E+00   1.7000E+01
          1     7.5000E+01   1.7000E+00   2.0000E+01
          1     1.0000E+02   1.8000E+00   2.2000E+01



TABULAR INFLOWS WERE READ FOR SEGMENT      1
FROM FILE UNIT NUMBER     55

          TIMES                    INFLOWS
             0.0000000000         4.0000000000
       2630000.0000000000        22.0000000000
       5260000.0000000000        42.0000000000
       7880000.0000000000        77.0000000000
      10500000.0000000000        28.0000000000
      13100000.0000000000        99.0000000000
      15800000.0000000000        63.0000000000
      18400000.0000000000        35.0000000000
      21000000.0000000000        21.0000000000
      23700000.0000000000         7.0000000000
      26300000.0000000000         3.5000000000
      28900000.0000000000         3.2999999523
      31500000.0000000000         3.0999999046
      34200000.0000000000        10.5000000000
      36800000.0000000000        21.0000000000
      39400000.0000000000        98.0000000000
      42000000.0000000000        35.0000000000
      44700000.0000000000        63.0000000000
      47300000.0000000000        28.0000000000
      49900000.0000000000        14.0000000000
      52600000.0000000000         7.0000000000
      55200000.0000000000         3.5000000000
      57800000.0000000000         3.2000000477
      60400000.0000000000         3.5000000000
      63100000.0000000000         3.5000000000
      65700000.0000000000        14.0000000000
TABULAR INFLOWS WERE READ FOR SEGMENT      9
FROM FILE UNIT NUMBER     56

          TIMES                    INFLOWS
             0.0000000000         1.0000000000
         86400.0000000000         1.0000000000
        173000.0000000000         0.0000000000
        259000.0000000000         0.0000000000
        346000.0000000000         0.0000000000
        432000.0000000000         0.0000000000
        518000.0000000000         0.0000000000
        605000.0000000000         0.0000000000
        691000.0000000000         0.0000000000
        778000.0000000000         0.0000000000
        864000.0000000000         0.0000000000
        950000.0000000000         0.0000000000
       1040000.0000000000         0.0000000000
       1120000.0000000000         0.0000000000
       1210000.0000000000         0.0000000000
       1300000.0000000000         0.0000000000
       1380000.0000000000         0.0000000000
       1470000.0000000000         0.0000000000
       1560000.0000000000         0.0000000000
       1640000.0000000000         0.0000000000
       1730000.0000000000         0.0000000000
       1810000.0000000000         0.0000000000
       1900000.0000000000         0.0000000000
       1990000.0000000000         0.0000000000
       2070000.0000000000         0.0000000000
       2160000.0000000000         0.0000000000
       2250000.0000000000         0.0000000000
       2330000.0000000000         0.0000000000
       2420000.0000000000         0.0000000000
       2510000.0000000000         0.0000000000
       2590000.0000000000         0.0000000000
       2680000.0000000000         0.0000000000
       2760000.0000000000         0.0000000000
       2850000.0000000000         0.0000000000
       2940000.0000000000         0.0000000000
       3020000.0000000000         0.0000000000
       3110000.0000000000         0.0000000000
       3200000.0000000000         0.0000000000
       3280000.0000000000         0.0000000000
       3370000.0000000000         0.0000000000
       3460000.0000000000         0.0000000000
       3540000.0000000000         0.0000000000
       3630000.0000000000         0.0000000000
       3720000.0000000000         0.0000000000
       3800000.0000000000         0.0000000000
       3890000.0000000000         0.0000000000
       3970000.0000000000         0.0000000000
       4060000.0000000000         0.0000000000
       4150000.0000000000         0.0000000000
       4230000.0000000000         0.0000000000
       4320000.0000000000         0.0000000000
       4410000.0000000000         0.0000000000
       4490000.0000000000         0.0000000000
       4580000.0000000000         0.0000000000
       4670000.0000000000         0.0000000000
       4750000.0000000000         0.0000000000
       4840000.0000000000         0.0000000000
       4920000.0000000000         0.0000000000
       5010000.0000000000         0.0000000000
       5100000.0000000000         0.0000000000
       5180000.0000000000         0.0000000000
       5270000.0000000000         0.0000000000
       5360000.0000000000         0.0000000000
       5440000.0000000000         0.0000000000
       5530000.0000000000         0.0000000000
       5620000.0000000000         0.0000000000
       5700000.0000000000         0.0000000000
       5790000.0000000000         0.0000000000
       5880000.0000000000         0.0000000000
       5960000.0000000000         0.0000000000
       6050000.0000000000         0.0000000000
       6130000.0000000000         0.0000000000
       6220000.0000000000         0.0000000000
       6310000.0000000000         0.0000000000
       6390000.0000000000         0.0000000000
       6480000.0000000000         0.0000000000
       6570000.0000000000         0.0000000000
       6650000.0000000000         0.0000000000
       6740000.0000000000         0.0000000000
       6830000.0000000000         0.0000000000
       6910000.0000000000         0.0000000000
       7000000.0000000000         0.0000000000
       7080000.0000000000         0.0000000000
       7170000.0000000000         0.0000000000
       7260000.0000000000         0.0000000000
       7340000.0000000000         0.0000000000
       7430000.0000000000         0.0000000000
       7520000.0000000000         0.0000000000
       7600000.0000000000         0.0000000000
       7690000.0000000000         0.0000000000
       7780000.0000000000         0.0000000000
       7860000.0000000000         0.0000000000
       7950000.0000000000         0.0000000000
       8040000.0000000000         0.0000000000
       8120000.0000000000         0.0000000000
       8210000.0000000000         0.0000000000
       8290000.0000000000         0.0000000000
       8380000.0000000000         0.0000000000
       8470000.0000000000         0.0000000000
       8550000.0000000000         0.0000000000
       8640000.0000000000         0.0000000000
       8730000.0000000000         0.0000000000
       8810000.0000000000         0.0000000000
       8900000.0000000000         0.0000000000
       8990000.0000000000         0.0000000000
       9070000.0000000000         0.0000000000
       9160000.0000000000         0.0000000000
       9240000.0000000000         0.0000000000
       9330000.0000000000         0.0000000000
       9420000.0000000000         0.0000000000
       9500000.0000000000         0.0000000000
       9590000.0000000000         0.0000000000
       9680000.0000000000         0.0000000000
       9760000.0000000000         0.0000000000
       9850000.0000000000         0.0000000000
       9940000.0000000000         0.0000000000
      10000000.0000000000         0.0000000000
      10100000.0000000000         0.0000000000
      10200000.0000000000         0.0000000000
      10300000.0000000000         0.0000000000
      10400000.0000000000         0.0000000000
      10500000.0000000000         0.0000000000
      10500000.0000000000         0.0000000000
      10600000.0000000000         0.0000000000
      10700000.0000000000         0.0000000000
      10800000.0000000000         0.0000000000
      10900000.0000000000         0.0000000000
      11000000.0000000000         0.0000000000
      11100000.0000000000         0.0000000000
      11100000.0000000000         0.0000000000
      11200000.0000000000         0.0000000000
      11300000.0000000000         0.0000000000
      11400000.0000000000         0.0000000000
      11500000.0000000000         0.0000000000
      11600000.0000000000         0.0000000000
      11700000.0000000000         0.0000000000
      11800000.0000000000         0.0000000000
      11800000.0000000000         0.0000000000
      11900000.0000000000         0.0000000000
      12000000.0000000000         0.0000000000
      12100000.0000000000         0.0000000000
      12200000.0000000000         0.0000000000
      12300000.0000000000         0.0000000000
      12400000.0000000000         0.0000000000
      12400000.0000000000         0.0000000000
      12500000.0000000000         0.0000000000
      12600000.0000000000         0.0000000000
      12700000.0000000000         0.0000000000
      12800000.0000000000         0.0000000000
      12900000.0000000000         0.0000000000
      13000000.0000000000         0.0000000000
      13000000.0000000000         5.0000000000
      13100000.0000000000         5.0000000000
      13200000.0000000000         5.0000000000
      13300000.0000000000         5.0000000000
      13400000.0000000000         5.0000000000
      13500000.0000000000         5.0000000000
      13600000.0000000000         5.0000000000
      13700000.0000000000         5.0000000000
      13700000.0000000000         5.0000000000
      13800000.0000000000         5.0000000000
      13900000.0000000000         5.0000000000
      14000000.0000000000         5.0000000000
      14100000.0000000000         5.0000000000
      14200000.0000000000         5.0000000000
      14300000.0000000000         5.0000000000
      14300000.0000000000         5.0000000000
      14400000.0000000000         5.0000000000
      14500000.0000000000         5.0000000000
      14600000.0000000000         5.0000000000
      14700000.0000000000         5.0000000000
      14800000.0000000000         5.0000000000
      14900000.0000000000         5.0000000000
      14900000.0000000000         5.0000000000
      15000000.0000000000         5.0000000000
      15100000.0000000000         5.0000000000
      15200000.0000000000         5.0000000000
      15300000.0000000000         5.0000000000
      15400000.0000000000         5.0000000000
      15500000.0000000000         5.0000000000
      15600000.0000000000         5.0000000000
      15600000.0000000000         5.0000000000
      15700000.0000000000         5.0000000000
      15800000.0000000000         5.0000000000
      15900000.0000000000         5.0000000000
      16000000.0000000000         5.0000000000
      16100000.0000000000         5.0000000000
      16200000.0000000000         5.0000000000
      16200000.0000000000         5.0000000000
      16300000.0000000000         5.0000000000
      16400000.0000000000         5.0000000000
      16500000.0000000000         5.0000000000
      16600000.0000000000         5.0000000000
      16700000.0000000000         5.0000000000
      16800000.0000000000         5.0000000000
      16800000.0000000000         5.0000000000
      16900000.0000000000         5.0000000000
      17000000.0000000000         5.0000000000
      17100000.0000000000         5.0000000000
      17200000.0000000000         5.0000000000
      17300000.0000000000         5.0000000000
      17400000.0000000000         5.0000000000
      17500000.0000000000         5.0000000000
      17500000.0000000000         5.0000000000
      17600000.0000000000         5.0000000000
      17700000.0000000000         5.0000000000
      17800000.0000000000         5.0000000000
      17900000.0000000000         5.0000000000
      18000000.0000000000         5.0000000000
      18100000.0000000000         5.0000000000
      18100000.0000000000         5.0000000000
      18200000.0000000000         5.0000000000
      18300000.0000000000         5.0000000000
      18400000.0000000000         5.0000000000
      18500000.0000000000         5.0000000000
      18600000.0000000000         5.0000000000
      18700000.0000000000         5.0000000000
      18700000.0000000000         5.0000000000
      18800000.0000000000         5.0000000000
      18900000.0000000000         5.0000000000
      19000000.0000000000         5.0000000000
      19100000.0000000000         5.0000000000
      19200000.0000000000         5.0000000000
      19300000.0000000000         5.0000000000
      19400000.0000000000         5.0000000000
      19400000.0000000000         5.0000000000
      19500000.0000000000         5.0000000000
      19600000.0000000000         5.0000000000
      19700000.0000000000         5.0000000000
      19800000.0000000000         5.0000000000
      19900000.0000000000         5.0000000000
      20000000.0000000000         5.0000000000
      20000000.0000000000         5.0000000000
      20100000.0000000000         5.0000000000
      20200000.0000000000         5.0000000000
      20300000.0000000000         5.0000000000
      20400000.0000000000         5.0000000000
      20500000.0000000000         5.0000000000
      20600000.0000000000         5.0000000000
      20600000.0000000000         5.0000000000
      20700000.0000000000         5.0000000000
      20800000.0000000000         5.0000000000
      20900000.0000000000         5.0000000000
      21000000.0000000000         5.0000000000
      21100000.0000000000         5.0000000000
      21200000.0000000000         5.0000000000
      21300000.0000000000         5.0000000000
      21300000.0000000000         5.0000000000
      21400000.0000000000         5.0000000000
      21500000.0000000000         5.0000000000
      21600000.0000000000         5.0000000000
      21700000.0000000000         5.0000000000
      21800000.0000000000         5.0000000000
      21900000.0000000000         5.0000000000
      21900000.0000000000         5.0000000000
      22000000.0000000000         5.0000000000
      22100000.0000000000         5.0000000000
      22200000.0000000000         5.0000000000
      22300000.0000000000         5.0000000000
      22400000.0000000000         5.0000000000
      22500000.0000000000         5.0000000000
      22600000.0000000000         5.0000000000
      22600000.0000000000         5.0000000000
      22700000.0000000000         5.0000000000
      22800000.0000000000         5.0000000000
      22900000.0000000000         5.0000000000
      23000000.0000000000         5.0000000000
      23100000.0000000000         5.0000000000
      23200000.0000000000         5.0000000000
      23200000.0000000000         5.0000000000
      23300000.0000000000         5.0000000000
      23400000.0000000000         5.0000000000
      23500000.0000000000         5.0000000000
      23600000.0000000000         5.0000000000
      23700000.0000000000         5.0000000000
      23800000.0000000000         5.0000000000
      23800000.0000000000         5.0000000000
      23900000.0000000000         5.0000000000
      24000000.0000000000         5.0000000000
      24100000.0000000000         5.0000000000
      24200000.0000000000         5.0000000000
      24300000.0000000000         5.0000000000
      24400000.0000000000         5.0000000000
      24500000.0000000000         5.0000000000
      24500000.0000000000         5.0000000000
      24600000.0000000000         5.0000000000
      24700000.0000000000         5.0000000000
      24800000.0000000000         0.0000000000
      24900000.0000000000         0.0000000000
      25000000.0000000000         0.0000000000
      25100000.0000000000         0.0000000000
      25100000.0000000000         0.0000000000
      25200000.0000000000         0.0000000000
      25300000.0000000000         0.0000000000
      25400000.0000000000         0.0000000000
      25500000.0000000000         0.0000000000
      25600000.0000000000         0.0000000000
      25700000.0000000000         0.0000000000
      25700000.0000000000         0.0000000000
      25800000.0000000000         0.0000000000
      25900000.0000000000         0.0000000000
      26000000.0000000000         0.0000000000
      26100000.0000000000         0.0000000000
      26200000.0000000000         0.0000000000
      26300000.0000000000         0.0000000000
      26400000.0000000000         0.0000000000
      26400000.0000000000         0.0000000000
      26500000.0000000000         0.0000000000
      26600000.0000000000         0.0000000000
      26700000.0000000000         0.0000000000
      26800000.0000000000         0.0000000000
      26900000.0000000000         0.0000000000
      27000000.0000000000         0.0000000000
      27000000.0000000000         0.0000000000
      27100000.0000000000         0.0000000000
      27200000.0000000000         0.0000000000
      27300000.0000000000         0.0000000000
      27400000.0000000000         0.0000000000
      27500000.0000000000         0.0000000000
      27600000.0000000000         0.0000000000
      27600000.0000000000         0.0000000000
      27700000.0000000000         0.0000000000
      27800000.0000000000         0.0000000000
      27900000.0000000000         0.0000000000
      28000000.0000000000         0.0000000000
      28100000.0000000000         0.0000000000
      28200000.0000000000         0.0000000000
      28300000.0000000000         0.0000000000
      28300000.0000000000         0.0000000000
      28400000.0000000000         0.0000000000
      28500000.0000000000         0.0000000000
      28600000.0000000000         0.0000000000
      28700000.0000000000         0.0000000000
      28800000.0000000000         0.0000000000
      28900000.0000000000         0.0000000000
      28900000.0000000000         0.0000000000
      29000000.0000000000         0.0000000000
      29100000.0000000000         0.0000000000
      29200000.0000000000         0.0000000000
      29300000.0000000000         0.0000000000
      29400000.0000000000         0.0000000000
      29500000.0000000000         0.0000000000
      29500000.0000000000         0.0000000000
      29600000.0000000000         0.0000000000
      29700000.0000000000         0.0000000000
      29800000.0000000000         0.0000000000
      29900000.0000000000         0.0000000000
      30000000.0000000000         0.0000000000
      30100000.0000000000         0.0000000000
      30200000.0000000000         0.0000000000
      30200000.0000000000         0.0000000000
      30300000.0000000000         0.0000000000
      30400000.0000000000         0.0000000000
      30500000.0000000000         0.0000000000
      30600000.0000000000         0.0000000000
      30700000.0000000000         0.0000000000
      30800000.0000000000         0.0000000000
      30800000.0000000000         0.0000000000
      30900000.0000000000         0.0000000000
      31000000.0000000000         0.0000000000
      31100000.0000000000         0.0000000000
      31200000.0000000000         0.0000000000
      31300000.0000000000         0.0000000000
      31400000.0000000000         0.0000000000
      31400000.0000000000         0.0000000000
      31500000.0000000000         0.0000000000
      31600000.0000000000         0.0000000000
      31700000.0000000000         0.0000000000
      31800000.0000000000         0.0000000000
      31900000.0000000000         0.0000000000
      32000000.0000000000         0.0000000000
      32100000.0000000000         0.0000000000
      32100000.0000000000         0.0000000000
      32200000.0000000000         0.0000000000
      32300000.0000000000         0.0000000000
      32400000.0000000000         0.0000000000
      32500000.0000000000         0.0000000000
      32600000.0000000000         0.0000000000
      32700000.0000000000         0.0000000000
      32700000.0000000000         0.0000000000
      32800000.0000000000         0.0000000000
      32900000.0000000000         0.0000000000
      33000000.0000000000         0.0000000000
      33100000.0000000000         0.0000000000
      33200000.0000000000         0.0000000000
      33300000.0000000000         0.0000000000
      33400000.0000000000         0.0000000000
      33400000.0000000000         0.0000000000
      33500000.0000000000         0.0000000000
      33600000.0000000000         0.0000000000
      33700000.0000000000         0.0000000000
      33800000.0000000000         0.0000000000
      33900000.0000000000         0.0000000000
      34000000.0000000000         0.0000000000
      34000000.0000000000         0.0000000000
      34100000.0000000000         0.0000000000
      34200000.0000000000         0.0000000000
      34300000.0000000000         0.0000000000
      34400000.0000000000         0.0000000000
      34500000.0000000000         0.0000000000
      34600000.0000000000         0.0000000000
      34600000.0000000000         0.0000000000
      34700000.0000000000         0.0000000000
      34800000.0000000000         0.0000000000
      34900000.0000000000         0.0000000000
      35000000.0000000000         0.0000000000
      35100000.0000000000         0.0000000000
      35200000.0000000000         0.0000000000
      35300000.0000000000         0.0000000000
      35300000.0000000000         0.0000000000
      35400000.0000000000         0.0000000000
      35500000.0000000000         0.0000000000
      35600000.0000000000         0.0000000000
      35700000.0000000000         0.0000000000
      35800000.0000000000         0.0000000000
      35900000.0000000000         0.0000000000
      35900000.0000000000         0.0000000000
      36000000.0000000000         0.0000000000
      36100000.0000000000         0.0000000000
      36200000.0000000000         0.0000000000
      36300000.0000000000         0.0000000000
      36400000.0000000000         0.0000000000
      36500000.0000000000         0.0000000000
      36500000.0000000000         0.0000000000
      36600000.0000000000         0.0000000000
      36700000.0000000000         0.0000000000
      36800000.0000000000         0.0000000000
      36900000.0000000000         0.0000000000
      37000000.0000000000         0.0000000000
      37100000.0000000000         0.0000000000
      37200000.0000000000         0.0000000000
      37200000.0000000000         0.0000000000
      37300000.0000000000         0.0000000000
      37400000.0000000000         0.0000000000
      37500000.0000000000         0.0000000000
      37600000.0000000000         0.0000000000
      37700000.0000000000         0.0000000000
      37800000.0000000000         0.0000000000
      37800000.0000000000         0.0000000000
      37900000.0000000000         0.0000000000
      38000000.0000000000         0.0000000000
      38100000.0000000000         0.0000000000
      38200000.0000000000         0.0000000000
      38300000.0000000000         0.0000000000
      38400000.0000000000         0.0000000000
      38400000.0000000000         0.0000000000
      38500000.0000000000         0.0000000000
      38600000.0000000000         0.0000000000
      38700000.0000000000         0.0000000000
      38800000.0000000000         0.0000000000
      38900000.0000000000         0.0000000000
      39000000.0000000000         0.0000000000
      39100000.0000000000         0.0000000000
      39100000.0000000000         0.0000000000
      39200000.0000000000         0.0000000000
      39300000.0000000000         0.0000000000
      39400000.0000000000         0.0000000000
      39500000.0000000000         0.0000000000
      39600000.0000000000         0.0000000000
      39700000.0000000000         0.0000000000
      39700000.0000000000         0.0000000000
      39800000.0000000000         0.0000000000
      39900000.0000000000         0.0000000000
      40000000.0000000000         0.0000000000
      40100000.0000000000         0.0000000000
      40200000.0000000000         0.0000000000
      40300000.0000000000         0.0000000000
      40300000.0000000000         0.0000000000
      40400000.0000000000         0.0000000000
      40500000.0000000000         0.0000000000
      40600000.0000000000         0.0000000000
      40700000.0000000000         0.0000000000
      40800000.0000000000         0.0000000000
      40900000.0000000000         0.0000000000
      41000000.0000000000         0.0000000000
      41000000.0000000000         0.0000000000
      41100000.0000000000         0.0000000000
      41200000.0000000000         0.0000000000
      41300000.0000000000         0.0000000000
      41400000.0000000000         0.0000000000
      41500000.0000000000         0.0000000000
      41600000.0000000000         0.0000000000
      41600000.0000000000         0.0000000000
      41700000.0000000000         0.0000000000
      41800000.0000000000         0.0000000000
      41900000.0000000000         0.0000000000
      42000000.0000000000         0.0000000000
      42100000.0000000000         0.0000000000
      42200000.0000000000         0.0000000000
      42200000.0000000000         0.0000000000
      42300000.0000000000         0.0000000000
      42400000.0000000000         0.0000000000
      42500000.0000000000         0.0000000000
      42600000.0000000000         0.0000000000
      42700000.0000000000         0.0000000000
      42800000.0000000000         0.0000000000
      42900000.0000000000         0.0000000000
      42900000.0000000000         0.0000000000
      43000000.0000000000         0.0000000000
      43100000.0000000000         0.0000000000
      43200000.0000000000         5.0000000000
      43300000.0000000000         5.0000000000
      43400000.0000000000         5.0000000000
      43500000.0000000000         5.0000000000
      43500000.0000000000         5.0000000000
      43600000.0000000000         5.0000000000
      43700000.0000000000         5.0000000000
      43800000.0000000000         5.0000000000
      43900000.0000000000         5.0000000000
      44000000.0000000000         5.0000000000
      44100000.0000000000         5.0000000000
      44200000.0000000000         5.0000000000
      44200000.0000000000         5.0000000000
      44300000.0000000000         5.0000000000
      44400000.0000000000         5.0000000000
      44500000.0000000000         5.0000000000
      44600000.0000000000         5.0000000000
      44700000.0000000000         5.0000000000
      44800000.0000000000         5.0000000000
      44800000.0000000000         5.0000000000
      44900000.0000000000         5.0000000000
      45000000.0000000000         5.0000000000
      45100000.0000000000         5.0000000000
      45200000.0000000000         5.0000000000
      45300000.0000000000         5.0000000000
      45400000.0000000000         5.0000000000
      45400000.0000000000         5.0000000000
      45500000.0000000000         5.0000000000
      45600000.0000000000         5.0000000000
      45700000.0000000000         5.0000000000
      45800000.0000000000         5.0000000000
      45900000.0000000000         5.0000000000
      46000000.0000000000         5.0000000000
      46100000.0000000000         5.0000000000
      46100000.0000000000         5.0000000000
      46200000.0000000000         5.0000000000
      46300000.0000000000         5.0000000000
      46400000.0000000000         5.0000000000
      46500000.0000000000         5.0000000000
      46600000.0000000000         5.0000000000
      46700000.0000000000         5.0000000000
      46700000.0000000000         5.0000000000
      46800000.0000000000         5.0000000000
      46900000.0000000000         5.0000000000
      47000000.0000000000         5.0000000000
      47100000.0000000000         5.0000000000
      47200000.0000000000         5.0000000000
      47300000.0000000000         5.0000000000
      47300000.0000000000         5.0000000000
      47400000.0000000000         5.0000000000
      47500000.0000000000         5.0000000000
      47600000.0000000000         5.0000000000
      47700000.0000000000         5.0000000000
      47800000.0000000000         5.0000000000
      47900000.0000000000         5.0000000000
      48000000.0000000000         5.0000000000
      48000000.0000000000         5.0000000000
      48100000.0000000000         5.0000000000
      48200000.0000000000         5.0000000000
      48300000.0000000000         5.0000000000
      48400000.0000000000         5.0000000000
      48500000.0000000000         5.0000000000
      48600000.0000000000         5.0000000000
      48600000.0000000000         5.0000000000
      48700000.0000000000         5.0000000000
      48800000.0000000000         5.0000000000
      48900000.0000000000         5.0000000000
      49000000.0000000000         5.0000000000
      49100000.0000000000         5.0000000000
      49200000.0000000000         5.0000000000
      49200000.0000000000         5.0000000000
      49300000.0000000000         5.0000000000
      49400000.0000000000         5.0000000000
      49500000.0000000000         5.0000000000
      49600000.0000000000         5.0000000000
      49700000.0000000000         5.0000000000
      49800000.0000000000         5.0000000000
      49900000.0000000000         5.0000000000
      49900000.0000000000         5.0000000000
      50000000.0000000000         5.0000000000
      50100000.0000000000         5.0000000000
      50200000.0000000000         5.0000000000
      50300000.0000000000         5.0000000000
      50400000.0000000000         5.0000000000
      50500000.0000000000         5.0000000000
      50500000.0000000000         5.0000000000
      50600000.0000000000         5.0000000000
      50700000.0000000000         5.0000000000
      50800000.0000000000         5.0000000000
      50900000.0000000000         5.0000000000
      51000000.0000000000         5.0000000000
      51100000.0000000000         5.0000000000
      51100000.0000000000         5.0000000000
      51200000.0000000000         5.0000000000
      51300000.0000000000         5.0000000000
      51400000.0000000000         5.0000000000
      51500000.0000000000         5.0000000000
      51600000.0000000000         5.0000000000
      51700000.0000000000         5.0000000000
      51800000.0000000000         5.0000000000
      51800000.0000000000         5.0000000000
      51900000.0000000000         5.0000000000
      52000000.0000000000         5.0000000000
      52100000.0000000000         5.0000000000
      52200000.0000000000         5.0000000000
      52300000.0000000000         5.0000000000
      52400000.0000000000         5.0000000000
      52400000.0000000000         5.0000000000
      52500000.0000000000         5.0000000000
      52600000.0000000000         5.0000000000
      52700000.0000000000         5.0000000000
      52800000.0000000000         5.0000000000
      52900000.0000000000         5.0000000000
      53000000.0000000000         5.0000000000
      53000000.0000000000         5.0000000000
      53100000.0000000000         5.0000000000
      53200000.0000000000         5.0000000000
      53300000.0000000000         5.0000000000
      53400000.0000000000         5.0000000000
      53500000.0000000000         5.0000000000
      53600000.0000000000         5.0000000000
      53700000.0000000000         5.0000000000
      53700000.0000000000         5.0000000000
      53800000.0000000000         5.0000000000
      53900000.0000000000         5.0000000000
      54000000.0000000000         5.0000000000
      54100000.0000000000         5.0000000000
      54200000.0000000000         5.0000000000
      54300000.0000000000         5.0000000000
      54300000.0000000000         5.0000000000
      54400000.0000000000         5.0000000000
      54500000.0000000000         5.0000000000
      54600000.0000000000         5.0000000000
      54700000.0000000000         5.0000000000
      54800000.0000000000         5.0000000000
      54900000.0000000000         5.0000000000
      55000000.0000000000         0.0000000000
      55000000.0000000000         0.0000000000
      55100000.0000000000         0.0000000000
      55200000.0000000000         0.0000000000
      55300000.0000000000         0.0000000000
      55400000.0000000000         0.0000000000
      55500000.0000000000         0.0000000000
      55600000.0000000000         0.0000000000
      55600000.0000000000         0.0000000000
      55700000.0000000000         0.0000000000
      55800000.0000000000         0.0000000000
      55900000.0000000000         0.0000000000
      56000000.0000000000         0.0000000000
      56100000.0000000000         0.0000000000
      56200000.0000000000         0.0000000000
      56200000.0000000000         0.0000000000
      56300000.0000000000         0.0000000000
      56400000.0000000000         0.0000000000
      56500000.0000000000         0.0000000000
      56600000.0000000000         0.0000000000
      56700000.0000000000         0.0000000000
      56800000.0000000000         0.0000000000
      56900000.0000000000         0.0000000000
      56900000.0000000000         0.0000000000
      57000000.0000000000         0.0000000000
      57100000.0000000000         0.0000000000
      57200000.0000000000         0.0000000000
      57300000.0000000000         0.0000000000
      57400000.0000000000         0.0000000000
      57500000.0000000000         0.0000000000
      57500000.0000000000         0.0000000000
      57600000.0000000000         0.0000000000
      57700000.0000000000         0.0000000000
      57800000.0000000000         0.0000000000
      57900000.0000000000         0.0000000000
      58000000.0000000000         0.0000000000
      58100000.0000000000         0.0000000000
      58100000.0000000000         0.0000000000
      58200000.0000000000         0.0000000000
      58300000.0000000000         0.0000000000
      58400000.0000000000         0.0000000000
      58500000.0000000000         0.0000000000
      58600000.0000000000         0.0000000000
      58700000.0000000000         0.0000000000
      58800000.0000000000         0.0000000000
      58800000.0000000000         0.0000000000
      58900000.0000000000         0.0000000000
      59000000.0000000000         0.0000000000
      59100000.0000000000         0.0000000000
      59200000.0000000000         0.0000000000
      59300000.0000000000         0.0000000000
      59400000.0000000000         0.0000000000
      59400000.0000000000         0.0000000000
      59500000.0000000000         0.0000000000
      59600000.0000000000         0.0000000000
      59700000.0000000000         0.0000000000
      59800000.0000000000         0.0000000000
      59900000.0000000000         0.0000000000
      60000000.0000000000         0.0000000000
      60000000.0000000000         0.0000000000
      60100000.0000000000         0.0000000000
      60200000.0000000000         0.0000000000
      60300000.0000000000         0.0000000000
      60400000.0000000000         0.0000000000
      60500000.0000000000         0.0000000000
      60600000.0000000000         0.0000000000
      60700000.0000000000         0.0000000000
      60700000.0000000000         0.0000000000
      60800000.0000000000         0.0000000000
      60900000.0000000000         0.0000000000
      61000000.0000000000         0.0000000000
      61100000.0000000000         0.0000000000
      61200000.0000000000         0.0000000000
      61300000.0000000000         0.0000000000
      61300000.0000000000         0.0000000000
      61400000.0000000000         0.0000000000
      61500000.0000000000         0.0000000000
      61600000.0000000000         0.0000000000
      61700000.0000000000         0.0000000000
      61800000.0000000000         0.0000000000
      61900000.0000000000         0.0000000000
      61900000.0000000000         0.0000000000
      62000000.0000000000         0.0000000000
      62100000.0000000000         0.0000000000
      62200000.0000000000         0.0000000000
      62300000.0000000000         0.0000000000
      62400000.0000000000         0.0000000000
      62500000.0000000000         0.0000000000
      62600000.0000000000         0.0000000000
      62600000.0000000000         0.0000000000
      62700000.0000000000         0.0000000000
      62800000.0000000000         0.0000000000
      62900000.0000000000         0.0000000000
      63000000.0000000000         0.0000000000
      63100000.0000000000         0.0000000000
      63200000.0000000000         0.0000000000
      63200000.0000000000         0.0000000000
      63300000.0000000000         0.0000000000
      63400000.0000000000         0.0000000000
      63500000.0000000000         0.0000000000
      63600000.0000000000         0.0000000000
      63700000.0000000000         0.0000000000
      63800000.0000000000         0.0000000000
      63800000.0000000000         0.0000000000
      63900000.0000000000         0.0000000000
      64000000.0000000000         0.0000000000
      64100000.0000000000         0.0000000000
      64200000.0000000000         0.0000000000
      64300000.0000000000         0.0000000000
      64400000.0000000000         0.0000000000
      64500000.0000000000         0.0000000000
      64500000.0000000000         0.0000000000
      64600000.0000000000         0.0000000000
      64700000.0000000000         0.0000000000
      64800000.0000000000         0.0000000000
      64900000.0000000000         0.0000000000
      65000000.0000000000         0.0000000000
      65100000.0000000000         0.0000000000
      65100000.0000000000         0.0000000000
      65200000.0000000000         0.0000000000
      65300000.0000000000         0.0000000000
      65400000.0000000000         0.0000000000
      65500000.0000000000         0.0000000000



            AREAL INFILTRATION RATE
 READING ON UNIT   19 WITH FORMAT: (10F4.0)            

            1           2           3           4           5           6           7           8           9          10
 ........................................................................................................................
   1   1.0000E-10  2.0000E-10   0.000       0.000       0.000       0.000       0.000       0.000       0.000       0.000    
   2   2.0000E-10  1.0000E-10  2.0000E-10   0.000       0.000      8.0000E-10  8.0000E-10  5.0000E-10   0.000       0.000    
   3    0.000      5.0000E-10  1.0000E-10  1.0000E-10  8.0000E-10  8.0000E-10  5.0000E-10  5.0000E-10   0.000       0.000    
   4   8.0000E-10  5.0000E-10  1.0000E-10  1.0000E-10  1.0000E-10  1.0000E-10  1.0000E-10  1.0000E-10  2.0000E-10   0.000    
   5   8.0000E-10  5.0000E-10  1.0000E-10  1.0000E-10  1.0000E-10  1.0000E-10  1.0000E-10  1.0000E-10  1.0000E-10  1.0000E-10
   6   8.0000E-10  5.0000E-10  5.0000E-10  2.0000E-10  2.0000E-10  1.0000E-10  1.0000E-10  1.0000E-10  1.0000E-10  5.0000E-10
   7   8.0000E-10  5.0000E-10  5.0000E-10  2.0000E-10  2.0000E-10  1.0000E-10  1.0000E-10  2.0000E-10  2.0000E-10   0.000    
   8    0.000      5.0000E-10  5.0000E-10  2.0000E-10  2.0000E-10  1.0000E-10  1.0000E-10  2.0000E-10  5.0000E-10   0.000    
   9    0.000      5.0000E-10  5.0000E-10  2.0000E-10  2.0000E-10  1.0000E-10  1.0000E-10  2.0000E-10  5.0000E-10   0.000    
  10    0.000      5.0000E-10  5.0000E-10  2.0000E-10  2.0000E-10  1.0000E-10  1.0000E-10  2.0000E-10  5.0000E-10  8.0000E-10
  11    0.000      1.0000E-10  1.0000E-10  1.0000E-10  1.0000E-10  1.0000E-10  1.0000E-10  2.0000E-10  5.0000E-10   0.000    
  12   1.0000E-10  1.0000E-10  1.0000E-10  1.0000E-10  1.0000E-10  1.0000E-10  1.0000E-10  1.0000E-10  2.0000E-10   0.000    
  13   1.0000E-10  1.0000E-10  2.0000E-10  2.0000E-10  2.0000E-10  2.0000E-10  2.0000E-10  1.0000E-10  1.0000E-10   0.000    
  14    0.000      2.0000E-10  5.0000E-10  5.0000E-10  5.0000E-10  5.0000E-10  5.0000E-10  2.0000E-10  1.0000E-10   0.000    
  15    0.000       0.000      8.0000E-10  8.0000E-10  8.0000E-10  8.0000E-10   0.000       0.000       0.000       0.000    

                  ET RATE =  1.000000E-08

      ET EXTINCTION DEPTH =   5.00000    

 EXTINCTION WATER CONTENT =  5.000000E-02

EXTINCTION WATER CONTENT FOR CELL AT ROW     1, COLUMN     1 IS LESS THAN RESIDUAL WATER CONTENT-- SETTING EXTINCTION WATER CONTENT EQUAL TO RESIDUAL WATER CONTENT

EXTINCTION WATER CONTENT FOR CELL AT ROW     1, COLUMN     2 IS LESS THAN RESIDUAL WATER CONTENT-- SETTING EXTINCTION WATER CONTENT EQUAL TO RESIDUAL WATER CONTENT

EXTINCTION WATER CONTENT FOR CELL AT ROW     2, COLUMN     1 IS LESS THAN RESIDUAL WATER CONTENT-- SETTING EXTINCTION WATER CONTENT EQUAL TO RESIDUAL WATER CONTENT

EXTINCTION WATER CONTENT FOR CELL AT ROW     2, COLUMN     2 IS LESS THAN RESIDUAL WATER CONTENT-- SETTING EXTINCTION WATER CONTENT EQUAL TO RESIDUAL WATER CONTENT

EXTINCTION WATER CONTENT FOR CELL AT ROW     2, COLUMN     3 IS LESS THAN RESIDUAL WATER CONTENT-- SETTING EXTINCTION WATER CONTENT EQUAL TO RESIDUAL WATER CONTENT

EXTINCTION WATER CONTENT FOR CELL AT ROW     2, COLUMN     6 IS LESS THAN RESIDUAL WATER CONTENT-- SETTING EXTINCTION WATER CONTENT EQUAL TO RESIDUAL WATER CONTENT

EXTINCTION WATER CONTENT FOR CELL AT ROW     2, COLUMN     7 IS LESS THAN RESIDUAL WATER CONTENT-- SETTING EXTINCTION WATER CONTENT EQUAL TO RESIDUAL WATER CONTENT

EXTINCTION WATER CONTENT FOR CELL AT ROW     2, COLUMN     8 IS LESS THAN RESIDUAL WATER CONTENT-- SETTING EXTINCTION WATER CONTENT EQUAL TO RESIDUAL WATER CONTENT

EXTINCTION WATER CONTENT FOR CELL AT ROW     3, COLUMN     2 IS LESS THAN RESIDUAL WATER CONTENT-- SETTING EXTINCTION WATER CONTENT EQUAL TO RESIDUAL WATER CONTENT

EXTINCTION WATER CONTENT FOR CELL AT ROW     3, COLUMN     3 IS LESS THAN RESIDUAL WATER CONTENT-- SETTING EXTINCTION WATER CONTENT EQUAL TO RESIDUAL WATER CONTENT

EXTINCTION WATER CONTENT FOR CELL AT ROW     3, COLUMN     4 IS LESS THAN RESIDUAL WATER CONTENT-- SETTING EXTINCTION WATER CONTENT EQUAL TO RESIDUAL WATER CONTENT

EXTINCTION WATER CONTENT FOR CELL AT ROW     3, COLUMN     5 IS LESS THAN RESIDUAL WATER CONTENT-- SETTING EXTINCTION WATER CONTENT EQUAL TO RESIDUAL WATER CONTENT

EXTINCTION WATER CONTENT FOR CELL AT ROW     3, COLUMN     6 IS LESS THAN RESIDUAL WATER CONTENT-- SETTING EXTINCTION WATER CONTENT EQUAL TO RESIDUAL WATER CONTENT

EXTINCTION WATER CONTENT FOR CELL AT ROW     3, COLUMN     7 IS LESS THAN RESIDUAL WATER CONTENT-- SETTING EXTINCTION WATER CONTENT EQUAL TO RESIDUAL WATER CONTENT

EXTINCTION WATER CONTENT FOR CELL AT ROW     3, COLUMN     8 IS LESS THAN RESIDUAL WATER CONTENT-- SETTING EXTINCTION WATER CONTENT EQUAL TO RESIDUAL WATER CONTENT

EXTINCTION WATER CONTENT FOR CELL AT ROW     4, COLUMN     1 IS LESS THAN RESIDUAL WATER CONTENT-- SETTING EXTINCTION WATER CONTENT EQUAL TO RESIDUAL WATER CONTENT

EXTINCTION WATER CONTENT FOR CELL AT ROW     4, COLUMN     2 IS LESS THAN RESIDUAL WATER CONTENT-- SETTING EXTINCTION WATER CONTENT EQUAL TO RESIDUAL WATER CONTENT

EXTINCTION WATER CONTENT FOR CELL AT ROW     4, COLUMN     3 IS LESS THAN RESIDUAL WATER CONTENT-- SETTING EXTINCTION WATER CONTENT EQUAL TO RESIDUAL WATER CONTENT

EXTINCTION WATER CONTENT FOR CELL AT ROW     4, COLUMN     4 IS LESS THAN RESIDUAL WATER CONTENT-- SETTING EXTINCTION WATER CONTENT EQUAL TO RESIDUAL WATER CONTENT

EXTINCTION WATER CONTENT FOR CELL AT ROW     4, COLUMN     5 IS LESS THAN RESIDUAL WATER CONTENT-- SETTING EXTINCTION WATER CONTENT EQUAL TO RESIDUAL WATER CONTENT

EXTINCTION WATER CONTENT FOR CELL AT ROW     4, COLUMN     6 IS LESS THAN RESIDUAL WATER CONTENT-- SETTING EXTINCTION WATER CONTENT EQUAL TO RESIDUAL WATER CONTENT

EXTINCTION WATER CONTENT FOR CELL AT ROW     4, COLUMN     7 IS LESS THAN RESIDUAL WATER CONTENT-- SETTING EXTINCTION WATER CONTENT EQUAL TO RESIDUAL WATER CONTENT

EXTINCTION WATER CONTENT FOR CELL AT ROW     4, COLUMN     8 IS LESS THAN RESIDUAL WATER CONTENT-- SETTING EXTINCTION WATER CONTENT EQUAL TO RESIDUAL WATER CONTENT

EXTINCTION WATER CONTENT FOR CELL AT ROW     4, COLUMN     9 IS LESS THAN RESIDUAL WATER CONTENT-- SETTING EXTINCTION WATER CONTENT EQUAL TO RESIDUAL WATER CONTENT

EXTINCTION WATER CONTENT FOR CELL AT ROW     5, COLUMN     1 IS LESS THAN RESIDUAL WATER CONTENT-- SETTING EXTINCTION WATER CONTENT EQUAL TO RESIDUAL WATER CONTENT

EXTINCTION WATER CONTENT FOR CELL AT ROW     5, COLUMN     2 IS LESS THAN RESIDUAL WATER CONTENT-- SETTING EXTINCTION WATER CONTENT EQUAL TO RESIDUAL WATER CONTENT

EXTINCTION WATER CONTENT FOR CELL AT ROW     5, COLUMN     3 IS LESS THAN RESIDUAL WATER CONTENT-- SETTING EXTINCTION WATER CONTENT EQUAL TO RESIDUAL WATER CONTENT

EXTINCTION WATER CONTENT FOR CELL AT ROW     5, COLUMN     4 IS LESS THAN RESIDUAL WATER CONTENT-- SETTING EXTINCTION WATER CONTENT EQUAL TO RESIDUAL WATER CONTENT

EXTINCTION WATER CONTENT FOR CELL AT ROW     5, COLUMN     5 IS LESS THAN RESIDUAL WATER CONTENT-- SETTING EXTINCTION WATER CONTENT EQUAL TO RESIDUAL WATER CONTENT

EXTINCTION WATER CONTENT FOR CELL AT ROW     5, COLUMN     6 IS LESS THAN RESIDUAL WATER CONTENT-- SETTING EXTINCTION WATER CONTENT EQUAL TO RESIDUAL WATER CONTENT

EXTINCTION WATER CONTENT FOR CELL AT ROW     5, COLUMN     7 IS LESS THAN RESIDUAL WATER CONTENT-- SETTING EXTINCTION WATER CONTENT EQUAL TO RESIDUAL WATER CONTENT

EXTINCTION WATER CONTENT FOR CELL AT ROW     5, COLUMN     8 IS LESS THAN RESIDUAL WATER CONTENT-- SETTING EXTINCTION WATER CONTENT EQUAL TO RESIDUAL WATER CONTENT

EXTINCTION WATER CONTENT FOR CELL AT ROW     5, COLUMN     9 IS LESS THAN RESIDUAL WATER CONTENT-- SETTING EXTINCTION WATER CONTENT EQUAL TO RESIDUAL WATER CONTENT

EXTINCTION WATER CONTENT FOR CELL AT ROW     5, COLUMN    10 IS LESS THAN RESIDUAL WATER CONTENT-- SETTING EXTINCTION WATER CONTENT EQUAL TO RESIDUAL WATER CONTENT

EXTINCTION WATER CONTENT FOR CELL AT ROW     6, COLUMN     1 IS LESS THAN RESIDUAL WATER CONTENT-- SETTING EXTINCTION WATER CONTENT EQUAL TO RESIDUAL WATER CONTENT

EXTINCTION WATER CONTENT FOR CELL AT ROW     6, COLUMN     2 IS LESS THAN RESIDUAL WATER CONTENT-- SETTING EXTINCTION WATER CONTENT EQUAL TO RESIDUAL WATER CONTENT

EXTINCTION WATER CONTENT FOR CELL AT ROW     6, COLUMN     3 IS LESS THAN RESIDUAL WATER CONTENT-- SETTING EXTINCTION WATER CONTENT EQUAL TO RESIDUAL WATER CONTENT

EXTINCTION WATER CONTENT FOR CELL AT ROW     6, COLUMN     4 IS LESS THAN RESIDUAL WATER CONTENT-- SETTING EXTINCTION WATER CONTENT EQUAL TO RESIDUAL WATER CONTENT

EXTINCTION WATER CONTENT FOR CELL AT ROW     6, COLUMN     5 IS LESS THAN RESIDUAL WATER CONTENT-- SETTING EXTINCTION WATER CONTENT EQUAL TO RESIDUAL WATER CONTENT

EXTINCTION WATER CONTENT FOR CELL AT ROW     6, COLUMN     6 IS LESS THAN RESIDUAL WATER CONTENT-- SETTING EXTINCTION WATER CONTENT EQUAL TO RESIDUAL WATER CONTENT

EXTINCTION WATER CONTENT FOR CELL AT ROW     6, COLUMN     7 IS LESS THAN RESIDUAL WATER CONTENT-- SETTING EXTINCTION WATER CONTENT EQUAL TO RESIDUAL WATER CONTENT

EXTINCTION WATER CONTENT FOR CELL AT ROW     6, COLUMN     8 IS LESS THAN RESIDUAL WATER CONTENT-- SETTING EXTINCTION WATER CONTENT EQUAL TO RESIDUAL WATER CONTENT

EXTINCTION WATER CONTENT FOR CELL AT ROW     6, COLUMN     9 IS LESS THAN RESIDUAL WATER CONTENT-- SETTING EXTINCTION WATER CONTENT EQUAL TO RESIDUAL WATER CONTENT

EXTINCTION WATER CONTENT FOR CELL AT ROW     6, COLUMN    10 IS LESS THAN RESIDUAL WATER CONTENT-- SETTING EXTINCTION WATER CONTENT EQUAL TO RESIDUAL WATER CONTENT

EXTINCTION WATER CONTENT FOR CELL AT ROW     7, COLUMN     1 IS LESS THAN RESIDUAL WATER CONTENT-- SETTING EXTINCTION WATER CONTENT EQUAL TO RESIDUAL WATER CONTENT

EXTINCTION WATER CONTENT FOR CELL AT ROW     7, COLUMN     2 IS LESS THAN RESIDUAL WATER CONTENT-- SETTING EXTINCTION WATER CONTENT EQUAL TO RESIDUAL WATER CONTENT

EXTINCTION WATER CONTENT FOR CELL AT ROW     7, COLUMN     3 IS LESS THAN RESIDUAL WATER CONTENT-- SETTING EXTINCTION WATER CONTENT EQUAL TO RESIDUAL WATER CONTENT

EXTINCTION WATER CONTENT FOR CELL AT ROW     7, COLUMN     4 IS LESS THAN RESIDUAL WATER CONTENT-- SETTING EXTINCTION WATER CONTENT EQUAL TO RESIDUAL WATER CONTENT

EXTINCTION WATER CONTENT FOR CELL AT ROW     7, COLUMN     5 IS LESS THAN RESIDUAL WATER CONTENT-- SETTING EXTINCTION WATER CONTENT EQUAL TO RESIDUAL WATER CONTENT

EXTINCTION WATER CONTENT FOR CELL AT ROW     7, COLUMN     6 IS LESS THAN RESIDUAL WATER CONTENT-- SETTING EXTINCTION WATER CONTENT EQUAL TO RESIDUAL WATER CONTENT

EXTINCTION WATER CONTENT FOR CELL AT ROW     7, COLUMN     7 IS LESS THAN RESIDUAL WATER CONTENT-- SETTING EXTINCTION WATER CONTENT EQUAL TO RESIDUAL WATER CONTENT

EXTINCTION WATER CONTENT FOR CELL AT ROW     7, COLUMN     8 IS LESS THAN RESIDUAL WATER CONTENT-- SETTING EXTINCTION WATER CONTENT EQUAL TO RESIDUAL WATER CONTENT

EXTINCTION WATER CONTENT FOR CELL AT ROW     7, COLUMN     9 IS LESS THAN RESIDUAL WATER CONTENT-- SETTING EXTINCTION WATER CONTENT EQUAL TO RESIDUAL WATER CONTENT

EXTINCTION WATER CONTENT FOR CELL AT ROW     8, COLUMN     2 IS LESS THAN RESIDUAL WATER CONTENT-- SETTING EXTINCTION WATER CONTENT EQUAL TO RESIDUAL WATER CONTENT

EXTINCTION WATER CONTENT FOR CELL AT ROW     8, COLUMN     3 IS LESS THAN RESIDUAL WATER CONTENT-- SETTING EXTINCTION WATER CONTENT EQUAL TO RESIDUAL WATER CONTENT

EXTINCTION WATER CONTENT FOR CELL AT ROW     8, COLUMN     4 IS LESS THAN RESIDUAL WATER CONTENT-- SETTING EXTINCTION WATER CONTENT EQUAL TO RESIDUAL WATER CONTENT

EXTINCTION WATER CONTENT FOR CELL AT ROW     8, COLUMN     5 IS LESS THAN RESIDUAL WATER CONTENT-- SETTING EXTINCTION WATER CONTENT EQUAL TO RESIDUAL WATER CONTENT

EXTINCTION WATER CONTENT FOR CELL AT ROW     8, COLUMN     6 IS LESS THAN RESIDUAL WATER CONTENT-- SETTING EXTINCTION WATER CONTENT EQUAL TO RESIDUAL WATER CONTENT

EXTINCTION WATER CONTENT FOR CELL AT ROW     8, COLUMN     7 IS LESS THAN RESIDUAL WATER CONTENT-- SETTING EXTINCTION WATER CONTENT EQUAL TO RESIDUAL WATER CONTENT

EXTINCTION WATER CONTENT FOR CELL AT ROW     8, COLUMN     8 IS LESS THAN RESIDUAL WATER CONTENT-- SETTING EXTINCTION WATER CONTENT EQUAL TO RESIDUAL WATER CONTENT

EXTINCTION WATER CONTENT FOR CELL AT ROW     8, COLUMN     9 IS LESS THAN RESIDUAL WATER CONTENT-- SETTING EXTINCTION WATER CONTENT EQUAL TO RESIDUAL WATER CONTENT

EXTINCTION WATER CONTENT FOR CELL AT ROW     9, COLUMN     2 IS LESS THAN RESIDUAL WATER CONTENT-- SETTING EXTINCTION WATER CONTENT EQUAL TO RESIDUAL WATER CONTENT

EXTINCTION WATER CONTENT FOR CELL AT ROW     9, COLUMN     3 IS LESS THAN RESIDUAL WATER CONTENT-- SETTING EXTINCTION WATER CONTENT EQUAL TO RESIDUAL WATER CONTENT

EXTINCTION WATER CONTENT FOR CELL AT ROW     9, COLUMN     4 IS LESS THAN RESIDUAL WATER CONTENT-- SETTING EXTINCTION WATER CONTENT EQUAL TO RESIDUAL WATER CONTENT

EXTINCTION WATER CONTENT FOR CELL AT ROW     9, COLUMN     5 IS LESS THAN RESIDUAL WATER CONTENT-- SETTING EXTINCTION WATER CONTENT EQUAL TO RESIDUAL WATER CONTENT

EXTINCTION WATER CONTENT FOR CELL AT ROW     9, COLUMN     6 IS LESS THAN RESIDUAL WATER CONTENT-- SETTING EXTINCTION WATER CONTENT EQUAL TO RESIDUAL WATER CONTENT

EXTINCTION WATER CONTENT FOR CELL AT ROW     9, COLUMN     7 IS LESS THAN RESIDUAL WATER CONTENT-- SETTING EXTINCTION WATER CONTENT EQUAL TO RESIDUAL WATER CONTENT

EXTINCTION WATER CONTENT FOR CELL AT ROW     9, COLUMN     8 IS LESS THAN RESIDUAL WATER CONTENT-- SETTING EXTINCTION WATER CONTENT EQUAL TO RESIDUAL WATER CONTENT

EXTINCTION WATER CONTENT FOR CELL AT ROW     9, COLUMN     9 IS LESS THAN RESIDUAL WATER CONTENT-- SETTING EXTINCTION WATER CONTENT EQUAL TO RESIDUAL WATER CONTENT

EXTINCTION WATER CONTENT FOR CELL AT ROW    10, COLUMN     2 IS LESS THAN RESIDUAL WATER CONTENT-- SETTING EXTINCTION WATER CONTENT EQUAL TO RESIDUAL WATER CONTENT

EXTINCTION WATER CONTENT FOR CELL AT ROW    10, COLUMN     3 IS LESS THAN RESIDUAL WATER CONTENT-- SETTING EXTINCTION WATER CONTENT EQUAL TO RESIDUAL WATER CONTENT

EXTINCTION WATER CONTENT FOR CELL AT ROW    10, COLUMN     4 IS LESS THAN RESIDUAL WATER CONTENT-- SETTING EXTINCTION WATER CONTENT EQUAL TO RESIDUAL WATER CONTENT

EXTINCTION WATER CONTENT FOR CELL AT ROW    10, COLUMN     5 IS LESS THAN RESIDUAL WATER CONTENT-- SETTING EXTINCTION WATER CONTENT EQUAL TO RESIDUAL WATER CONTENT

EXTINCTION WATER CONTENT FOR CELL AT ROW    10, COLUMN     6 IS LESS THAN RESIDUAL WATER CONTENT-- SETTING EXTINCTION WATER CONTENT EQUAL TO RESIDUAL WATER CONTENT

EXTINCTION WATER CONTENT FOR CELL AT ROW    10, COLUMN     7 IS LESS THAN RESIDUAL WATER CONTENT-- SETTING EXTINCTION WATER CONTENT EQUAL TO RESIDUAL WATER CONTENT

EXTINCTION WATER CONTENT FOR CELL AT ROW    10, COLUMN     8 IS LESS THAN RESIDUAL WATER CONTENT-- SETTING EXTINCTION WATER CONTENT EQUAL TO RESIDUAL WATER CONTENT

EXTINCTION WATER CONTENT FOR CELL AT ROW    10, COLUMN     9 IS LESS THAN RESIDUAL WATER CONTENT-- SETTING EXTINCTION WATER CONTENT EQUAL TO RESIDUAL WATER CONTENT

EXTINCTION WATER CONTENT FOR CELL AT ROW    10, COLUMN    10 IS LESS THAN RESIDUAL WATER CONTENT-- SETTING EXTINCTION WATER CONTENT EQUAL TO RESIDUAL WATER CONTENT

EXTINCTION WATER CONTENT FOR CELL AT ROW    11, COLUMN     2 IS LESS THAN RESIDUAL WATER CONTENT-- SETTING EXTINCTION WATER CONTENT EQUAL TO RESIDUAL WATER CONTENT

EXTINCTION WATER CONTENT FOR CELL AT ROW    11, COLUMN     3 IS LESS THAN RESIDUAL WATER CONTENT-- SETTING EXTINCTION WATER CONTENT EQUAL TO RESIDUAL WATER CONTENT

EXTINCTION WATER CONTENT FOR CELL AT ROW    11, COLUMN     4 IS LESS THAN RESIDUAL WATER CONTENT-- SETTING EXTINCTION WATER CONTENT EQUAL TO RESIDUAL WATER CONTENT

EXTINCTION WATER CONTENT FOR CELL AT ROW    11, COLUMN     5 IS LESS THAN RESIDUAL WATER CONTENT-- SETTING EXTINCTION WATER CONTENT EQUAL TO RESIDUAL WATER CONTENT

EXTINCTION WATER CONTENT FOR CELL AT ROW    11, COLUMN     6 IS LESS THAN RESIDUAL WATER CONTENT-- SETTING EXTINCTION WATER CONTENT EQUAL TO RESIDUAL WATER CONTENT

EXTINCTION WATER CONTENT FOR CELL AT ROW    11, COLUMN     7 IS LESS THAN RESIDUAL WATER CONTENT-- SETTING EXTINCTION WATER CONTENT EQUAL TO RESIDUAL WATER CONTENT

EXTINCTION WATER CONTENT FOR CELL AT ROW    11, COLUMN     8 IS LESS THAN RESIDUAL WATER CONTENT-- SETTING EXTINCTION WATER CONTENT EQUAL TO RESIDUAL WATER CONTENT

EXTINCTION WATER CONTENT FOR CELL AT ROW    11, COLUMN     9 IS LESS THAN RESIDUAL WATER CONTENT-- SETTING EXTINCTION WATER CONTENT EQUAL TO RESIDUAL WATER CONTENT

EXTINCTION WATER CONTENT FOR CELL AT ROW    12, COLUMN     1 IS LESS THAN RESIDUAL WATER CONTENT-- SETTING EXTINCTION WATER CONTENT EQUAL TO RESIDUAL WATER CONTENT

EXTINCTION WATER CONTENT FOR CELL AT ROW    12, COLUMN     2 IS LESS THAN RESIDUAL WATER CONTENT-- SETTING EXTINCTION WATER CONTENT EQUAL TO RESIDUAL WATER CONTENT

EXTINCTION WATER CONTENT FOR CELL AT ROW    12, COLUMN     3 IS LESS THAN RESIDUAL WATER CONTENT-- SETTING EXTINCTION WATER CONTENT EQUAL TO RESIDUAL WATER CONTENT

EXTINCTION WATER CONTENT FOR CELL AT ROW    12, COLUMN     4 IS LESS THAN RESIDUAL WATER CONTENT-- SETTING EXTINCTION WATER CONTENT EQUAL TO RESIDUAL WATER CONTENT

EXTINCTION WATER CONTENT FOR CELL AT ROW    12, COLUMN     5 IS LESS THAN RESIDUAL WATER CONTENT-- SETTING EXTINCTION WATER CONTENT EQUAL TO RESIDUAL WATER CONTENT

EXTINCTION WATER CONTENT FOR CELL AT ROW    12, COLUMN     6 IS LESS THAN RESIDUAL WATER CONTENT-- SETTING EXTINCTION WATER CONTENT EQUAL TO RESIDUAL WATER CONTENT

EXTINCTION WATER CONTENT FOR CELL AT ROW    12, COLUMN     7 IS LESS THAN RESIDUAL WATER CONTENT-- SETTING EXTINCTION WATER CONTENT EQUAL TO RESIDUAL WATER CONTENT

EXTINCTION WATER CONTENT FOR CELL AT ROW    12, COLUMN     8 IS LESS THAN RESIDUAL WATER CONTENT-- SETTING EXTINCTION WATER CONTENT EQUAL TO RESIDUAL WATER CONTENT

EXTINCTION WATER CONTENT FOR CELL AT ROW    12, COLUMN     9 IS LESS THAN RESIDUAL WATER CONTENT-- SETTING EXTINCTION WATER CONTENT EQUAL TO RESIDUAL WATER CONTENT

EXTINCTION WATER CONTENT FOR CELL AT ROW    13, COLUMN     1 IS LESS THAN RESIDUAL WATER CONTENT-- SETTING EXTINCTION WATER CONTENT EQUAL TO RESIDUAL WATER CONTENT

EXTINCTION WATER CONTENT FOR CELL AT ROW    13, COLUMN     2 IS LESS THAN RESIDUAL WATER CONTENT-- SETTING EXTINCTION WATER CONTENT EQUAL TO RESIDUAL WATER CONTENT

EXTINCTION WATER CONTENT FOR CELL AT ROW    13, COLUMN     3 IS LESS THAN RESIDUAL WATER CONTENT-- SETTING EXTINCTION WATER CONTENT EQUAL TO RESIDUAL WATER CONTENT

EXTINCTION WATER CONTENT FOR CELL AT ROW    13, COLUMN     4 IS LESS THAN RESIDUAL WATER CONTENT-- SETTING EXTINCTION WATER CONTENT EQUAL TO RESIDUAL WATER CONTENT

EXTINCTION WATER CONTENT FOR CELL AT ROW    13, COLUMN     5 IS LESS THAN RESIDUAL WATER CONTENT-- SETTING EXTINCTION WATER CONTENT EQUAL TO RESIDUAL WATER CONTENT

EXTINCTION WATER CONTENT FOR CELL AT ROW    13, COLUMN     6 IS LESS THAN RESIDUAL WATER CONTENT-- SETTING EXTINCTION WATER CONTENT EQUAL TO RESIDUAL WATER CONTENT

EXTINCTION WATER CONTENT FOR CELL AT ROW    13, COLUMN     7 IS LESS THAN RESIDUAL WATER CONTENT-- SETTING EXTINCTION WATER CONTENT EQUAL TO RESIDUAL WATER CONTENT

EXTINCTION WATER CONTENT FOR CELL AT ROW    13, COLUMN     8 IS LESS THAN RESIDUAL WATER CONTENT-- SETTING EXTINCTION WATER CONTENT EQUAL TO RESIDUAL WATER CONTENT

EXTINCTION WATER CONTENT FOR CELL AT ROW    13, COLUMN     9 IS LESS THAN RESIDUAL WATER CONTENT-- SETTING EXTINCTION WATER CONTENT EQUAL TO RESIDUAL WATER CONTENT

EXTINCTION WATER CONTENT FOR CELL AT ROW    14, COLUMN     2 IS LESS THAN RESIDUAL WATER CONTENT-- SETTING EXTINCTION WATER CONTENT EQUAL TO RESIDUAL WATER CONTENT

EXTINCTION WATER CONTENT FOR CELL AT ROW    14, COLUMN     3 IS LESS THAN RESIDUAL WATER CONTENT-- SETTING EXTINCTION WATER CONTENT EQUAL TO RESIDUAL WATER CONTENT

EXTINCTION WATER CONTENT FOR CELL AT ROW    14, COLUMN     4 IS LESS THAN RESIDUAL WATER CONTENT-- SETTING EXTINCTION WATER CONTENT EQUAL TO RESIDUAL WATER CONTENT

EXTINCTION WATER CONTENT FOR CELL AT ROW    14, COLUMN     5 IS LESS THAN RESIDUAL WATER CONTENT-- SETTING EXTINCTION WATER CONTENT EQUAL TO RESIDUAL WATER CONTENT

EXTINCTION WATER CONTENT FOR CELL AT ROW    14, COLUMN     6 IS LESS THAN RESIDUAL WATER CONTENT-- SETTING EXTINCTION WATER CONTENT EQUAL TO RESIDUAL WATER CONTENT

EXTINCTION WATER CONTENT FOR CELL AT ROW    14, COLUMN     7 IS LESS THAN RESIDUAL WATER CONTENT-- SETTING EXTINCTION WATER CONTENT EQUAL TO RESIDUAL WATER CONTENT

EXTINCTION WATER CONTENT FOR CELL AT ROW    14, COLUMN     8 IS LESS THAN RESIDUAL WATER CONTENT-- SETTING EXTINCTION WATER CONTENT EQUAL TO RESIDUAL WATER CONTENT

EXTINCTION WATER CONTENT FOR CELL AT ROW    14, COLUMN     9 IS LESS THAN RESIDUAL WATER CONTENT-- SETTING EXTINCTION WATER CONTENT EQUAL TO RESIDUAL WATER CONTENT

EXTINCTION WATER CONTENT FOR CELL AT ROW    15, COLUMN     3 IS LESS THAN RESIDUAL WATER CONTENT-- SETTING EXTINCTION WATER CONTENT EQUAL TO RESIDUAL WATER CONTENT

EXTINCTION WATER CONTENT FOR CELL AT ROW    15, COLUMN     4 IS LESS THAN RESIDUAL WATER CONTENT-- SETTING EXTINCTION WATER CONTENT EQUAL TO RESIDUAL WATER CONTENT

EXTINCTION WATER CONTENT FOR CELL AT ROW    15, COLUMN     5 IS LESS THAN RESIDUAL WATER CONTENT-- SETTING EXTINCTION WATER CONTENT EQUAL TO RESIDUAL WATER CONTENT

EXTINCTION WATER CONTENT FOR CELL AT ROW    15, COLUMN     6 IS LESS THAN RESIDUAL WATER CONTENT-- SETTING EXTINCTION WATER CONTENT EQUAL TO RESIDUAL WATER CONTENT

 PROCESSING WELL LIST

 FINISHED READING WELL LIST

     10 WELLS

 PROCESSING AGO STRESS PERIOD DATA

 READING AGO STRESS PERIOD DATA

 READING IRRIGATION STREAM

 READING IRRIGATION WELL

 READING SUPPLEMENTAL WEL

 END PROCESSING AGO STRESS PERIOD DATA OPTIONS
 
 SOLVING FOR HEAD 
                                                   Max.-Head-Change                         Max.-Flux-Residual
  Residual-Control   Outer-Iter.   Inner-Iter.     Column Row Layer    Maximum-Head-Change  Column Row Layer    Maximum-Flux-Residual          L2-NORM 
          0                 1           4             2    2     1      -0.2846297980E+02       3    3    1        -0.3357742619E+01      0.9171949526E+01
          0                 2           4             1    1     1      -0.3048454935E+02       1   13    1        -0.1310671877E+02      0.1397766717E+02
          0                 3           4             5    3     1       0.1378573612E+01       1   13    1        -0.8969177799E+00      0.1224807867E+01
          0                 4           4             5    3     1      -0.1230095472E+00       1   13    1         0.6608860718E-01      0.9183645350E-01
          0                 5           3             5    3     1       0.9807910311E-02       1   13    1        -0.4238731739E-02      0.6463712305E-02
          0                 6           2             5    3     1      -0.6850778313E-03       1   13    1         0.2450093039E-03      0.4207413544E-03
          0                 7           1             5    3     1       0.3948598222E-04       5   13    1        -0.1476036618E-04      0.2362201029E-04
          0                 8           1             1    1     1       0.3005771692E-05       3   13    1         0.1222599167E-05      0.1625023667E-05

    ------------------------------------------------
       NWT REQUIRED            8 OUTER ITERATIONS 
       AND A TOTAL OF         23 INNER ITERATIONS.
    ------------------------------------------------

 OUTPUT CONTROL FOR STRESS PERIOD    1   TIME STEP    1
    PRINT BUDGET
    SAVE BUDGET
 UBUDSV SAVING "   CONSTANT HEAD" ON UNIT102 AT TIME STEP     1, STRESS PERIOD    1
 UBUDSV SAVING "FLOW RIGHT FACE " ON UNIT102 AT TIME STEP     1, STRESS PERIOD    1
 UBUDSV SAVING "FLOW FRONT FACE " ON UNIT102 AT TIME STEP     1, STRESS PERIOD    1

  HEAD DEP BOUNDS   PERIOD    1   STEP     1
 BOUNDARY      1   LAYER   1   ROW    13   COL     1   RATE   -0.283515    
 BOUNDARY      2   LAYER   1   ROW    14   COL     9   RATE    0.285273    



 STREAM LISTING     PERIOD      1   STEP        1

 LAYER ROW COL. STREAM  RCH.  FLOW INTO     FLOW TO   FLOW OUT OF   OVRLND.     DIRECT     STREAM       STREAM     STREAM     STREAM   STREAMBED  STREAMBED
                SEG.NO.  NO.  STRM. RCH.    AQUIFER    STRM. RCH.    RUNOFF     PRECIP       ET          HEAD       DEPTH      WIDTH   CONDCTNC.   GRADIENT

   1    1    1     1     1    4.0000E+00  8.7855E-02   3.9121E+00  0.000E+00  0.000E+00  0.000E+00  1.09374E+03  6.973E-01  5.280E+00  2.376E-02  1.232E+00
   1    2    2     1     2    3.9121E+00  1.3511E-01   3.7770E+00  0.000E+00  0.000E+00  0.000E+00  1.08875E+03  6.904E-01  5.230E+00  3.661E-02  1.230E+00
   1    3    3     1     3    3.7770E+00  1.1429E-01   3.6628E+00  0.000E+00  0.000E+00  0.000E+00  1.08310E+03  6.825E-01  5.172E+00  3.103E-02  1.228E+00
   1    3    4     1     4    3.6628E+00  1.0446E-01   3.5583E+00  0.000E+00  0.000E+00  0.000E+00  1.07808E+03  6.755E-01  5.121E+00  2.842E-02  1.225E+00
   1    4    5     2     1    1.5583E+00  2.5094E-01   1.3074E+00  0.000E+00  0.000E+00  0.000E+00  1.07215E+03  2.172E-01  1.200E+01  7.800E-02  1.072E+00
   1    5    6     2     2    1.3074E+00  1.9178E-01   1.1156E+00  0.000E+00  0.000E+00  0.000E+00  1.06671E+03  1.964E-01  1.200E+01  6.000E-02  1.065E+00
   1    6    6     2     3    1.1156E+00  1.9063E-01   9.2494E-01  0.000E+00  0.000E+00  0.000E+00  1.06197E+03  1.772E-01  1.200E+01  6.000E-02  1.059E+00
   1    7    6     2     4    9.2494E-01  1.8939E-01   7.3554E-01  0.000E+00  0.000E+00  0.000E+00  1.05723E+03  1.566E-01  1.200E+01  6.000E-02  1.052E+00
   1    8    6     2     5    7.3554E-01  1.8805E-01   5.4750E-01  0.000E+00  0.000E+00  0.000E+00  1.05249E+03  1.341E-01  1.200E+01  6.000E-02  1.045E+00
   1    3    5     3     1    2.0000E+00  2.8252E-01   1.7175E+00  0.000E+00  0.000E+00  0.000E+00  1.07555E+03  1.909E+00  9.636E+00  7.227E-02  1.955E+00
   1    3    6     3     2    1.7175E+00  2.4905E-01   1.4684E+00  0.000E+00  0.000E+00  0.000E+00  1.07264E+03  1.727E+00  8.909E+00  6.682E-02  1.864E+00
   1    3    7     3     3    1.4684E+00  1.9718E-01   1.2712E+00  0.000E+00  0.000E+00  0.000E+00  1.06987E+03  1.555E+00  8.218E+00  5.547E-02  1.777E+00
   1    4    8     3     4    1.2712E+00  2.2567E-01   1.0456E+00  0.000E+00  0.000E+00  0.000E+00  1.06682E+03  1.364E+00  7.455E+00  6.709E-02  1.682E+00
   1    5    8     3     5    1.0456E+00  1.5790E-01   8.8768E-01  0.000E+00  0.000E+00  0.000E+00  1.06362E+03  1.164E+00  6.655E+00  4.991E-02  1.582E+00
   1    6    8     3     6    8.8768E-01  5.5980E-02   8.3170E-01  0.000E+00  0.000E+00  0.000E+00  1.06158E+03  1.036E+00  6.145E+00  1.844E-02  1.518E+00
   1    5   10     4     1    1.0000E+01  9.0919E-02   9.9091E+00  0.000E+00  0.000E+00  0.000E+00  1.07836E+03  6.368E-01  1.000E+01  2.500E-02  1.212E+00
   1    5    9     4     2    9.9091E+00  1.8158E-01   9.7275E+00  0.000E+00  0.000E+00  0.000E+00  1.07154E+03  6.315E-01  1.000E+01  5.000E-02  1.211E+00
   1    6    8     4     3    9.7275E+00  1.2689E-01   9.6006E+00  0.000E+00  0.000E+00  0.000E+00  1.06381E+03  6.256E-01  1.000E+01  3.500E-02  1.209E+00
   1    6    8     5     1    1.0432E+01  2.2686E-01   1.0205E+01  0.000E+00  0.000E+00  0.000E+00  1.05868E+03  6.790E-01  1.542E+01  6.166E-02  1.226E+00
   1    7    7     5     2    1.0205E+01  2.7894E-01   9.9265E+00  0.000E+00  0.000E+00  0.000E+00  1.05417E+03  6.732E-01  1.519E+01  7.594E-02  1.224E+00
   1    8    7     5     3    9.9265E+00  1.9221E-01   9.7343E+00  0.000E+00  0.000E+00  0.000E+00  1.04992E+03  6.676E-01  1.497E+01  5.241E-02  1.223E+00
   1    8    6     5     4    9.7343E+00  1.3577E-01   9.5985E+00  0.000E+00  0.000E+00  0.000E+00  1.04691E+03  6.637E-01  1.482E+01  3.706E-02  1.221E+00
   1    9    6     6     1    9.5985E+00  2.2097E-01   9.3776E+00  0.000E+00  0.000E+00  0.000E+00  1.04341E+03  6.828E-01  1.200E+01  6.000E-02  1.228E+00
   1   10    7     6     2    9.3776E+00  2.2039E-01   9.1572E+00  0.000E+00  0.000E+00  0.000E+00  1.03885E+03  6.732E-01  1.200E+01  6.000E-02  1.224E+00
   1   11    7     6     3    9.1572E+00  2.1981E-01   8.9374E+00  0.000E+00  0.000E+00  0.000E+00  1.03430E+03  6.636E-01  1.200E+01  6.000E-02  1.221E+00
   1   12    7     6     4    8.9374E+00  2.1923E-01   8.7181E+00  0.000E+00  0.000E+00  0.000E+00  1.02974E+03  6.539E-01  1.200E+01  6.000E-02  1.218E+00
   1   13    7     6     5    8.7181E+00 -1.0041E-01   8.8185E+00  0.000E+00  0.000E+00  0.000E+00  1.02656E+03  6.512E-01  1.200E+01  2.400E-01 -1.395E-01
   1   14    9     7     1    1.5000E+02  1.3287E+00   1.4867E+02  0.000E+00  0.000E+00  0.000E+00  1.03987E+03  2.288E+00  5.529E+01  5.593E-01  7.919E-01
   1   13    8     7     2    1.4867E+02  1.8333E+00   1.4684E+02  0.000E+00  0.000E+00  0.000E+00  1.03478E+03  2.279E+00  5.526E+01  6.148E-01  9.940E-01
   1   13    7     7     3    1.4684E+02  1.5140E+00   1.4532E+02  0.000E+00  0.000E+00  0.000E+00  1.02969E+03  2.270E+00  5.522E+01  5.584E-01  9.037E-01
   1   13    6     8     1    1.5414E+02  8.6017E-01   1.5328E+02  0.000E+00  0.000E+00  0.000E+00  1.02472E+03  2.843E+00  4.122E+01  4.200E-01  6.826E-01
   1   13    5     8     2    1.5328E+02  1.2288E-01   1.5316E+02  0.000E+00  0.000E+00  0.000E+00  1.01846E+03  2.839E+00  4.117E+01  4.195E-01  9.763E-02
   1   13    4     8     3    1.5316E+02 -2.5699E+00   1.5573E+02  0.000E+00  0.000E+00  0.000E+00  1.01222E+03  2.848E+00  4.129E+01  4.208E+00 -2.036E-01
   1   13    3     8     4    1.5573E+02 -3.6038E+00   1.5933E+02  0.000E+00  0.000E+00  0.000E+00  1.00599E+03  2.869E+00  4.160E+01  4.239E+00 -2.834E-01
   1   13    2     8     5    1.5933E+02 -2.3722E+00   1.6171E+02  0.000E+00  0.000E+00  0.000E+00  9.99764E+02  2.889E+00  4.190E+01  4.269E+00 -1.852E-01
   1   13    1     8     6    1.6171E+02 -1.7571E+00   1.6346E+02  0.000E+00  0.000E+00  0.000E+00  9.94778E+02  2.903E+00  4.210E+01  2.574E+00 -2.276E-01
   1    6    8     9     1    5.4750E-01  0.0000E+00   5.4750E-01  0.000E+00  0.000E+00  0.000E+00  1.07859E+03  9.431E-02  4.000E+00  0.000E+00  1.031E+00



 UBDSV3 SAVING "     NETRECHARGE" ON UNIT 100 AT TIME STEP     1, STRESS PERIOD   1
 UBDSV3 SAVING "    NETDISCHARGE" ON UNIT 101 AT TIME STEP     1, STRESS PERIOD   1
 UBDSV3 SAVING "           GW ET" ON UNIT  61 AT TIME STEP     1, STRESS PERIOD   1
 UBDSV3 SAVING "    UZF RECHARGE" ON UNIT  61 AT TIME STEP     1, STRESS PERIOD   1
 UBDSV3 SAVING " SURFACE LEAKAGE" ON UNIT  61 AT TIME STEP     1, STRESS PERIOD   1
 UBDSV3 SAVING "       HORT+DUNN" ON UNIT  61 AT TIME STEP     1, STRESS PERIOD   1
 UBDSV3 SAVING "  STORAGE CHANGE" ON UNIT  61 AT TIME STEP     1, STRESS PERIOD   1


UNSATURATED ZONE PACKAGE VOLUMETRIC BUDGET FOR  TIME STEP     1 STRESS PERIOD    1
  ------------------------------------------------------------------------------



     CUMULATIVE VOLUMES      L**3       RATES FOR THIS TIME STEP      L**3/T
     ------------------                 ------------------------

           IN:                                      IN:
           ---                                      ---
        INFILTRATION =      183081.7188          INFILTRATION =           2.1190

          OUT:                                     OUT:
          ----                                     ----
              UZF ET =       0.0000E+00                UZF ET =       0.0000E+00
        UZF RECHARGE =      183081.7188          UZF RECHARGE =           2.1190

            IN - OUT =       0.0000E+00              IN - OUT =       0.0000E+00

          STORAGE:                                 STORAGE:
          --------                                 --------
      STORAGE CHANGE =       0.0000E+00        STORAGE CHANGE =       0.0000E+00

 PERCENT DISCREPANCY IS DIFFERENCE BETWEEN IN-OUT MINUS CHANGE IN STORAGE
 DIVIDED BY THE AVERAGE OF IN AND OUT TIMES 100

 PERCENT DISCREPANCY =           0.00     PERCENT DISCREPANCY =           0.00






1
  VOLUMETRIC BUDGET FOR ENTIRE MODEL AT END OF TIME STEP    1, STRESS PERIOD   1
  ------------------------------------------------------------------------------

     CUMULATIVE VOLUMES      L**3       RATES FOR THIS TIME STEP      L**3/T
     ------------------                 ------------------------

           IN:                                      IN:
           ---                                      ---
             STORAGE     =           0.0000               STORAGE     =           0.0000
       CONSTANT HEAD     =           0.0000         CONSTANT HEAD     =           0.0000
               WELLS     =           0.0000                 WELLS     =           0.0000
     HEAD DEP BOUNDS     =       24647.6035       HEAD DEP BOUNDS     =           0.2853
      STREAM LEAKAGE     =      897991.3125        STREAM LEAKAGE     =          10.3934
        UZF RECHARGE     =      183081.9062          UZF RECHARGE     =           2.1190
               GW ET     =           0.0000                 GW ET     =           0.0000
     SURFACE LEAKAGE     =           0.0000       SURFACE LEAKAGE     =           0.0000
    SUPPLEMENTARY WELLS  =           0.0000      SUPPLEMENTARY WELLS  =           0.0000

                TOTAL IN =     1105720.8750                  TOTAL IN =          12.7977

          OUT:                                     OUT:
          ----                                     ----
             STORAGE     =           0.0000               STORAGE     =           0.0000
       CONSTANT HEAD     =           0.0000         CONSTANT HEAD     =           0.0000
               WELLS     =           0.0000                 WELLS     =           0.0000
     HEAD DEP BOUNDS     =       24495.6836       HEAD DEP BOUNDS     =           0.2835
      STREAM LEAKAGE     =      898862.6875        STREAM LEAKAGE     =          10.4035
        UZF RECHARGE     =           0.0000          UZF RECHARGE     =           0.0000
               GW ET     =      151084.9844                 GW ET     =           1.7487
     SURFACE LEAKAGE     =           0.0000       SURFACE LEAKAGE     =           0.0000
    SUPPLEMENTARY WELLS  =       31276.9629      SUPPLEMENTARY WELLS  =           0.3620

               TOTAL OUT =     1105720.3750                 TOTAL OUT =          12.7977

                IN - OUT =           0.5000                  IN - OUT =       5.7220E-06

     PERCENT DISCREPANCY =           0.00         PERCENT DISCREPANCY =           0.00






         TIME SUMMARY AT END OF TIME STEP    1 IN STRESS PERIOD    1
                    SECONDS     MINUTES      HOURS       DAYS        YEARS
                    -----------------------------------------------------------
   TIME STEP LENGTH  86400.      1440.0      24.000      1.0000     2.73785E-03
 STRESS PERIOD TIME  86400.      1440.0      24.000      1.0000     2.73785E-03
         TOTAL TIME  86400.      1440.0      24.000      1.0000     2.73785E-03
1
1
                            STRESS PERIOD NO.    2, LENGTH =   2628000.    
                            -----------------------------------------------

                              NUMBER OF TIME STEPS =    30

                               MULTIPLIER FOR DELT =     1.000

                            INITIAL TIME STEP SIZE =   87600.00    

 WELL NO.  LAYER   ROW   COL   STRESS RATE         
 --------------------------------------------------
      1      1      6      4       0.000    
      2      1      6      7       0.000    
      3      1      7      4       0.000    
      4      1      7      5       0.000    
      5      1      8      4       0.000    
      6      1      8      5       0.000    
      7      1      9      4       0.000    
      8      1      9      5       0.000    
      9      1     10      4       0.000    
     10      1     10      5       0.000    

     10 WELLS

 REUSING NON-PARAMETER GHB CELLS FROM LAST STRESS PERIOD

      2 GHB CELLS

 REUSING STREAM SEGMENT DATA FROM LAST STRESS PERIOD



            AREAL INFILTRATION RATE
 READING ON UNIT   19 WITH FORMAT: (10F4.0)            

            1           2           3           4           5           6           7           8           9          10
 ........................................................................................................................
   1    0.000       0.000       0.000       0.000       0.000       0.000       0.000       0.000       0.000       0.000    
   2    0.000       0.000       0.000       0.000       0.000       0.000       0.000       0.000       0.000       0.000    
   3    0.000       0.000       0.000       0.000       0.000       0.000       0.000       0.000       0.000       0.000    
   4    0.000       0.000       0.000       0.000       0.000       0.000       0.000       0.000       0.000       0.000    
   5    0.000       0.000       0.000       0.000       0.000       0.000       0.000       0.000       0.000       0.000    
   6    0.000       0.000       0.000       0.000       0.000       0.000       0.000       0.000       0.000       0.000    
   7    0.000       0.000       0.000       0.000       0.000       0.000       0.000       0.000       0.000       0.000    
   8    0.000       0.000       0.000       0.000       0.000       0.000       0.000       0.000       0.000       0.000    
   9    0.000       0.000       0.000       0.000       0.000       0.000       0.000       0.000       0.000       0.000    
  10    0.000       0.000       0.000       0.000       0.000       0.000       0.000       0.000       0.000       0.000    
  11    0.000       0.000       0.000       0.000       0.000       0.000       0.000       0.000       0.000       0.000    
  12    0.000       0.000       0.000       0.000       0.000       0.000       0.000       0.000       0.000       0.000    
  13    0.000       0.000       0.000       0.000       0.000       0.000       0.000       0.000       0.000       0.000    
  14    0.000       0.000       0.000       0.000       0.000       0.000       0.000       0.000       0.000       0.000    
  15    0.000       0.000       0.000       0.000       0.000       0.000       0.000       0.000       0.000       0.000    

                  ET RATE =  1.000000E-10

 USING ET EXTINCTION DEPTH FROM PREVIOUS STRESS PERIOD. CURRENT PERIOD IS:       2

 USING EXTINCTION WATER CONTENT FROM PREVIOUS STRESS PERIOD. CURRENT PERIOD IS:       2

 PROCESSING AGO STRESS PERIOD DATA

 READING AGO STRESS PERIOD DATA

 READING IRRIGATION STREAM

 READING IRRIGATION WELL

 READING SUPPLEMENTAL WEL

 END PROCESSING AGO STRESS PERIOD DATA OPTIONS
 
 SOLVING FOR HEAD 
                                                   Max.-Head-Change                         Max.-Flux-Residual
  Residual-Control   Outer-Iter.   Inner-Iter.     Column Row Layer    Maximum-Head-Change  Column Row Layer    Maximum-Flux-Residual          L2-NORM 
          0                 1           2             8    6     1      -0.9050805775E-02       8    6    1        -0.4890524065E+00      0.1869656690E+01
          0                 2           2             1   12     1       0.2537554470E-02       8    6    1        -0.8024462581E-01      0.5483861942E+00
          0                 3           2             1   12     1       0.1137844355E-02       1   12    1         0.2961105202E-01      0.2175773727E+00
          0                 4           2             2   11     1       0.5103744040E-03       1   12    1         0.1327525744E-01      0.9537213061E-01
          0                 5           2             2   11     1       0.2290227685E-03       2   11    1         0.5955673273E-02      0.4250204228E-01
          0                 6           1             2   11     1       0.1027567679E-03       2   11    1         0.2672451656E-02      0.1898528272E-01
          0                 7           1             2   11     1       0.4609840697E-04       2   11    1         0.1199032924E-02      0.8484001953E-02
          0                 8           1             2   11     1       0.2067792500E-04       2   11    1         0.5378936260E-03      0.3791755242E-02
          0                 9           1             2   11     1       0.9274176638E-05       2   11    1         0.2412723543E-03      0.1694799732E-02

    ------------------------------------------------
       NWT REQUIRED            9 OUTER ITERATIONS 
       AND A TOTAL OF         14 INNER ITERATIONS.
    ------------------------------------------------

 OUTPUT CONTROL FOR STRESS PERIOD    2   TIME STEP    1
    PRINT BUDGET
    SAVE BUDGET
 UBUDSV SAVING "         STORAGE" ON UNIT102 AT TIME STEP     1, STRESS PERIOD    2
 UBUDSV SAVING "   CONSTANT HEAD" ON UNIT102 AT TIME STEP     1, STRESS PERIOD    2
 UBUDSV SAVING "FLOW RIGHT FACE " ON UNIT102 AT TIME STEP     1, STRESS PERIOD    2
 UBUDSV SAVING "FLOW FRONT FACE " ON UNIT102 AT TIME STEP     1, STRESS PERIOD    2

  HEAD DEP BOUNDS   PERIOD    2   STEP     1
 BOUNDARY      1   LAYER   1   ROW    13   COL     1   RATE   -0.283854    
 BOUNDARY      2   LAYER   1   ROW    14   COL     9   RATE    0.285144    



 STREAM LISTING     PERIOD      2   STEP        1

 LAYER ROW COL. STREAM  RCH.  FLOW INTO     FLOW TO   FLOW OUT OF   OVRLND.     DIRECT     STREAM       STREAM     STREAM     STREAM   STREAMBED  STREAMBED
                SEG.NO.  NO.  STRM. RCH.    AQUIFER    STRM. RCH.    RUNOFF     PRECIP       ET          HEAD       DEPTH      WIDTH   CONDCTNC.   GRADIENT

   1    1    1     1     1    4.0000E+00  8.7855E-02   3.9121E+00  0.000E+00  0.000E+00  0.000E+00  1.09374E+03  6.973E-01  5.280E+00  2.376E-02  1.232E+00
   1    2    2     1     2    3.9121E+00  1.3511E-01   3.7770E+00  0.000E+00  0.000E+00  0.000E+00  1.08875E+03  6.904E-01  5.230E+00  3.661E-02  1.230E+00
   1    3    3     1     3    3.7770E+00  1.1429E-01   3.6628E+00  0.000E+00  0.000E+00  0.000E+00  1.08310E+03  6.825E-01  5.172E+00  3.103E-02  1.228E+00
   1    3    4     1     4    3.6628E+00  1.0446E-01   3.5583E+00  0.000E+00  0.000E+00  0.000E+00  1.07808E+03  6.755E-01  5.121E+00  2.842E-02  1.225E+00
   1    4    5     2     1    1.5583E+00  2.5094E-01   1.3074E+00  0.000E+00  0.000E+00  0.000E+00  1.07215E+03  2.172E-01  1.200E+01  7.800E-02  1.072E+00
   1    5    6     2     2    1.3074E+00  1.9178E-01   1.1156E+00  0.000E+00  0.000E+00  0.000E+00  1.06671E+03  1.964E-01  1.200E+01  6.000E-02  1.065E+00
   1    6    6     2     3    1.1156E+00  1.9063E-01   9.2494E-01  0.000E+00  0.000E+00  0.000E+00  1.06197E+03  1.772E-01  1.200E+01  6.000E-02  1.059E+00
   1    7    6     2     4    9.2494E-01  1.8939E-01   7.3554E-01  0.000E+00  0.000E+00  0.000E+00  1.05723E+03  1.566E-01  1.200E+01  6.000E-02  1.052E+00
   1    8    6     2     5    7.3554E-01  1.8805E-01   5.4750E-01  0.000E+00  0.000E+00  0.000E+00  1.05249E+03  1.341E-01  1.200E+01  6.000E-02  1.045E+00
   1    3    5     3     1    2.0000E+00  2.8252E-01   1.7175E+00  0.000E+00  0.000E+00  0.000E+00  1.07555E+03  1.909E+00  9.636E+00  7.227E-02  1.955E+00
   1    3    6     3     2    1.7175E+00  2.4905E-01   1.4684E+00  0.000E+00  0.000E+00  0.000E+00  1.07264E+03  1.727E+00  8.909E+00  6.682E-02  1.864E+00
   1    3    7     3     3    1.4684E+00  1.9718E-01   1.2712E+00  0.000E+00  0.000E+00  0.000E+00  1.06987E+03  1.555E+00  8.218E+00  5.547E-02  1.777E+00
   1    4    8     3     4    1.2712E+00  2.2567E-01   1.0456E+00  0.000E+00  0.000E+00  0.000E+00  1.06682E+03  1.364E+00  7.455E+00  6.709E-02  1.682E+00
   1    5    8     3     5    1.0456E+00  1.5790E-01   8.8768E-01  0.000E+00  0.000E+00  0.000E+00  1.06362E+03  1.164E+00  6.655E+00  4.991E-02  1.582E+00
   1    6    8     3     6    8.8768E-01  5.5980E-02   8.3170E-01  0.000E+00  0.000E+00  0.000E+00  1.06158E+03  1.036E+00  6.145E+00  1.844E-02  1.518E+00
   1    5   10     4     1    1.0000E+01  9.0919E-02   9.9091E+00  0.000E+00  0.000E+00  0.000E+00  1.07836E+03  6.368E-01  1.000E+01  2.500E-02  1.212E+00
   1    5    9     4     2    9.9091E+00  1.8158E-01   9.7275E+00  0.000E+00  0.000E+00  0.000E+00  1.07154E+03  6.315E-01  1.000E+01  5.000E-02  1.211E+00
   1    6    8     4     3    9.7275E+00  1.2689E-01   9.6006E+00  0.000E+00  0.000E+00  0.000E+00  1.06381E+03  6.256E-01  1.000E+01  3.500E-02  1.209E+00
   1    6    8     5     1    1.0432E+01  2.2686E-01   1.0205E+01  0.000E+00  0.000E+00  0.000E+00  1.05868E+03  6.790E-01  1.542E+01  6.166E-02  1.226E+00
   1    7    7     5     2    1.0205E+01  2.7894E-01   9.9265E+00  0.000E+00  0.000E+00  0.000E+00  1.05417E+03  6.732E-01  1.519E+01  7.594E-02  1.224E+00
   1    8    7     5     3    9.9265E+00  1.9221E-01   9.7343E+00  0.000E+00  0.000E+00  0.000E+00  1.04992E+03  6.676E-01  1.497E+01  5.241E-02  1.223E+00
   1    8    6     5     4    9.7343E+00  1.3577E-01   9.5985E+00  0.000E+00  0.000E+00  0.000E+00  1.04691E+03  6.637E-01  1.482E+01  3.706E-02  1.221E+00
   1    9    6     6     1    1.0146E+01  2.2237E-01   9.9237E+00  0.000E+00  0.000E+00  0.000E+00  1.04343E+03  7.061E-01  1.200E+01  6.000E-02  1.235E+00
   1   10    7     6     2    9.9237E+00  2.2180E-01   9.7019E+00  0.000E+00  0.000E+00  0.000E+00  1.03888E+03  6.967E-01  1.200E+01  6.000E-02  1.232E+00
   1   11    7     6     3    9.7019E+00  2.2123E-01   9.4806E+00  0.000E+00  0.000E+00  0.000E+00  1.03432E+03  6.872E-01  1.200E+01  6.000E-02  1.229E+00
   1   12    7     6     4    9.4806E+00  2.2066E-01   9.2600E+00  0.000E+00  0.000E+00  0.000E+00  1.02977E+03  6.777E-01  1.200E+01  6.000E-02  1.226E+00
   1   13    7     6     5    9.2600E+00 -9.6859E-02   9.3568E+00  0.000E+00  0.000E+00  0.000E+00  1.02658E+03  6.750E-01  1.200E+01  2.400E-01 -1.345E-01
   1   14    9     7     1    1.5000E+02  1.3268E+00   1.4867E+02  0.000E+00  0.000E+00  0.000E+00  1.03987E+03  2.288E+00  5.529E+01  5.593E-01  7.907E-01
   1   13    8     7     2    1.4867E+02  1.8312E+00   1.4684E+02  0.000E+00  0.000E+00  0.000E+00  1.03478E+03  2.279E+00  5.526E+01  6.148E-01  9.929E-01
   1   13    7     7     3    1.4684E+02  1.5090E+00   1.4533E+02  0.000E+00  0.000E+00  0.000E+00  1.02969E+03  2.270E+00  5.522E+01  5.584E-01  9.007E-01
   1   13    6     8     1    1.5469E+02  8.5910E-01   1.5383E+02  0.000E+00  0.000E+00  0.000E+00  1.02472E+03  2.847E+00  4.128E+01  4.206E-01  6.808E-01
   1   13    5     8     2    1.5383E+02  1.2085E-01   1.5371E+02  0.000E+00  0.000E+00  0.000E+00  1.01847E+03  2.843E+00  4.123E+01  4.201E-01  9.589E-02
   1   13    4     8     3    1.5371E+02 -2.5932E+00   1.5630E+02  0.000E+00  0.000E+00  0.000E+00  1.01223E+03  2.852E+00  4.135E+01  4.214E+00 -2.051E-01
   1   13    3     8     4    1.5630E+02 -3.6282E+00   1.5993E+02  0.000E+00  0.000E+00  0.000E+00  1.00600E+03  2.873E+00  4.166E+01  4.245E+00 -2.849E-01
   1   13    2     8     5    1.5993E+02 -2.3953E+00   1.6233E+02  0.000E+00  0.000E+00  0.000E+00  9.99768E+02  2.893E+00  4.196E+01  4.275E+00 -1.868E-01
   1   13    1     8     6    1.6233E+02 -1.7718E+00   1.6410E+02  0.000E+00  0.000E+00  0.000E+00  9.94782E+02  2.907E+00  4.216E+01  2.578E+00 -2.291E-01
   1    6    8     9     1    7.4491E-06  0.0000E+00   7.4491E-06  0.000E+00  0.000E+00  0.000E+00  1.07850E+03  1.038E-04  4.000E+00  0.000E+00  1.000E+00



 UBDSV3 SAVING "     NETRECHARGE" ON UNIT 100 AT TIME STEP     1, STRESS PERIOD   2
 UBDSV3 SAVING "    NETDISCHARGE" ON UNIT 101 AT TIME STEP     1, STRESS PERIOD   2
 UBDSV3 SAVING "           GW ET" ON UNIT  61 AT TIME STEP     1, STRESS PERIOD   2
 UBDSV3 SAVING "    UZF RECHARGE" ON UNIT  61 AT TIME STEP     1, STRESS PERIOD   2
 UBDSV3 SAVING " SURFACE LEAKAGE" ON UNIT  61 AT TIME STEP     1, STRESS PERIOD   2
 UBDSV3 SAVING "       HORT+DUNN" ON UNIT  61 AT TIME STEP     1, STRESS PERIOD   2
 UBDSV3 SAVING "  STORAGE CHANGE" ON UNIT  61 AT TIME STEP     1, STRESS PERIOD   2


UNSATURATED ZONE PACKAGE VOLUMETRIC BUDGET FOR  TIME STEP     1 STRESS PERIOD    2
  ------------------------------------------------------------------------------



     CUMULATIVE VOLUMES      L**3       RATES FOR THIS TIME STEP      L**3/T
     ------------------                 ------------------------

           IN:                                      IN:
           ---                                      ---
        INFILTRATION =      183082.4255          INFILTRATION =           0.0000

          OUT:                                     OUT:
          ----                                     ----
              UZF ET =       25397.9232                UZF ET =           0.2899
        UZF RECHARGE =     2671820.2578          UZF RECHARGE =          28.4103

            IN - OUT =    -2514135.7556              IN - OUT =         -28.7002

          STORAGE:                                 STORAGE:
          --------                                 --------
      STORAGE CHANGE =    -2510234.4369        STORAGE CHANGE =         -28.6556

 PERCENT DISCREPANCY IS DIFFERENCE BETWEEN IN-OUT MINUS CHANGE IN STORAGE
 DIVIDED BY THE AVERAGE OF IN AND OUT TIMES 100

 PERCENT DISCREPANCY =          -0.04     PERCENT DISCREPANCY =          -0.16






1
  VOLUMETRIC BUDGET FOR ENTIRE MODEL AT END OF TIME STEP    1, STRESS PERIOD   2
  ------------------------------------------------------------------------------

     CUMULATIVE VOLUMES      L**3       RATES FOR THIS TIME STEP      L**3/T
     ------------------                 ------------------------

           IN:                                      IN:
           ---                                      ---
             STORAGE     =       67529.3906               STORAGE     =           0.7709
       CONSTANT HEAD     =           0.0000         CONSTANT HEAD     =           0.0000
               WELLS     =           0.0000                 WELLS     =           0.0000
     HEAD DEP BOUNDS     =       49626.2344       HEAD DEP BOUNDS     =           0.2851
      STREAM LEAKAGE     =     1807889.0000        STREAM LEAKAGE     =          10.3870
        UZF RECHARGE     =     2671820.5000          UZF RECHARGE     =          28.4103
               GW ET     =           0.0000                 GW ET     =           0.0000
     SURFACE LEAKAGE     =           0.0000       SURFACE LEAKAGE     =           0.0000
    SUPPLEMENTARY WELLS  =           0.0000      SUPPLEMENTARY WELLS  =           0.0000

                TOTAL IN =     4596865.0000                  TOTAL IN =          39.8532

          OUT:                                     OUT:
          ----                                     ----
             STORAGE     =     2547247.2500               STORAGE     =          29.0782
       CONSTANT HEAD     =           0.0000         CONSTANT HEAD     =           0.0000
               WELLS     =           0.0000                 WELLS     =           0.0000
     HEAD DEP BOUNDS     =       49361.2578       HEAD DEP BOUNDS     =           0.2839
      STREAM LEAKAGE     =     1817382.2500        STREAM LEAKAGE     =          10.4854
        UZF RECHARGE     =           0.0000          UZF RECHARGE     =           0.0000
               GW ET     =      151085.3438                 GW ET     =       4.0982E-06
     SURFACE LEAKAGE     =           0.0000       SURFACE LEAKAGE     =           0.0000
    SUPPLEMENTARY WELLS  =       31277.0352      SUPPLEMENTARY WELLS  =       8.2062E-07

               TOTAL OUT =     4596353.5000                 TOTAL OUT =          39.8474

                IN - OUT =         511.5000                  IN - OUT =       5.8403E-03

     PERCENT DISCREPANCY =           0.01         PERCENT DISCREPANCY =           0.01






         TIME SUMMARY AT END OF TIME STEP    1 IN STRESS PERIOD    2
                    SECONDS     MINUTES      HOURS       DAYS        YEARS
                    -----------------------------------------------------------
   TIME STEP LENGTH  87600.      1460.0      24.333      1.0139     2.77588E-03
 STRESS PERIOD TIME  87600.      1460.0      24.333      1.0139     2.77588E-03
         TOTAL TIME 1.74000E+05  2900.0      48.333      2.0139     5.51373E-03
1
 
 SOLVING FOR HEAD 
                                                   Max.-Head-Change                         Max.-Flux-Residual
  Residual-Control   Outer-Iter.   Inner-Iter.     Column Row Layer    Maximum-Head-Change  Column Row Layer    Maximum-Flux-Residual          L2-NORM 
          0                 1           2             8    6     1      -0.8663401053E-02       8    6    1        -0.4681473742E+00      0.1839924142E+01
          0                 2           2             1   12     1       0.2534638752E-02       8    6    1        -0.7680707361E-01      0.5373297813E+00
          0                 3           2             1   12     1       0.1136396921E-02       1   12    1         0.2957584134E-01      0.2160258321E+00
          0                 4           2             2   11     1       0.5098065698E-03       1   12    1         0.1325812445E-01      0.9486934790E-01
          0                 5           2             2   11     1       0.2287408972E-03       2   11    1         0.5948914989E-02      0.4229578779E-01
          0                 6           1             2   11     1       0.1026185891E-03       2   11    1         0.2669105340E-02      0.1889535306E-01
          0                 7           1             2   11     1       0.4603135207E-04       2   11    1         0.1197395832E-02      0.8444488360E-02
          0                 8           1             2   11     1       0.2064565418E-04       2   11    1         0.5371004877E-03      0.3774374174E-02
          0                 9           1             2   11     1       0.9258754666E-05       2   11    1         0.2408911907E-03      0.1687149728E-02

    ------------------------------------------------
       NWT REQUIRED            9 OUTER ITERATIONS 
       AND A TOTAL OF         14 INNER ITERATIONS.
    ------------------------------------------------

 OUTPUT CONTROL WAS SPECIFIED FOR A NONEXISTENT TIME STEP
 OR OUTPUT CONTROL DATA ARE NOT ENTERED IN ASCENDING ORDER
 OUTPUT CONTROL STRESS PERIOD    1   TIME STEP    5
 MODEL STRESS PERIOD    2   TIME STEP    2
 APPLYING THE SPECIFIED OUTPUT CONTROL TO THE CURRENT TIME STEP

 OUTPUT CONTROL FOR STRESS PERIOD    2   TIME STEP    2
    PRINT BUDGET
    SAVE BUDGET
 UBUDSV SAVING "         STORAGE" ON UNIT102 AT TIME STEP     2, STRESS PERIOD    2
 UBUDSV SAVING "   CONSTANT HEAD" ON UNIT102 AT TIME STEP     2, STRESS PERIOD    2
 UBUDSV SAVING "FLOW RIGHT FACE " ON UNIT102 AT TIME STEP     2, STRESS PERIOD    2
 UBUDSV SAVING "FLOW FRONT FACE " ON UNIT102 AT TIME STEP     2, STRESS PERIOD    2

  HEAD DEP BOUNDS   PERIOD    2   STEP     2
 BOUNDARY      1   LAYER   1   ROW    13   COL     1   RATE   -0.284174    
 BOUNDARY      2   LAYER   1   ROW    14   COL     9   RATE    0.285016    



 STREAM LISTING     PERIOD      2   STEP        2

 LAYER ROW COL. STREAM  RCH.  FLOW INTO     FLOW TO   FLOW OUT OF   OVRLND.     DIRECT     STREAM       STREAM     STREAM     STREAM   STREAMBED  STREAMBED
                SEG.NO.  NO.  STRM. RCH.    AQUIFER    STRM. RCH.    RUNOFF     PRECIP       ET          HEAD       DEPTH      WIDTH   CONDCTNC.   GRADIENT

   1    1    1     1     1    4.0000E+00  8.7855E-02   3.9121E+00  0.000E+00  0.000E+00  0.000E+00  1.09374E+03  6.973E-01  5.280E+00  2.376E-02  1.232E+00
   1    2    2     1     2    3.9121E+00  1.3511E-01   3.7770E+00  0.000E+00  0.000E+00  0.000E+00  1.08875E+03  6.904E-01  5.230E+00  3.661E-02  1.230E+00
   1    3    3     1     3    3.7770E+00  1.1429E-01   3.6628E+00  0.000E+00  0.000E+00  0.000E+00  1.08310E+03  6.825E-01  5.172E+00  3.103E-02  1.228E+00
   1    3    4     1     4    3.6628E+00  1.0446E-01   3.5583E+00  0.000E+00  0.000E+00  0.000E+00  1.07808E+03  6.755E-01  5.121E+00  2.842E-02  1.225E+00
   1    4    5     2     1    1.5583E+00  2.5094E-01   1.3074E+00  0.000E+00  0.000E+00  0.000E+00  1.07215E+03  2.172E-01  1.200E+01  7.800E-02  1.072E+00
   1    5    6     2     2    1.3074E+00  1.9178E-01   1.1156E+00  0.000E+00  0.000E+00  0.000E+00  1.06671E+03  1.964E-01  1.200E+01  6.000E-02  1.065E+00
   1    6    6     2     3    1.1156E+00  1.9063E-01   9.2494E-01  0.000E+00  0.000E+00  0.000E+00  1.06197E+03  1.772E-01  1.200E+01  6.000E-02  1.059E+00
   1    7    6     2     4    9.2494E-01  1.8939E-01   7.3554E-01  0.000E+00  0.000E+00  0.000E+00  1.05723E+03  1.566E-01  1.200E+01  6.000E-02  1.052E+00
   1    8    6     2     5    7.3554E-01  1.8805E-01   5.4750E-01  0.000E+00  0.000E+00  0.000E+00  1.05249E+03  1.341E-01  1.200E+01  6.000E-02  1.045E+00
   1    3    5     3     1    2.0000E+00  2.8252E-01   1.7175E+00  0.000E+00  0.000E+00  0.000E+00  1.07555E+03  1.909E+00  9.636E+00  7.227E-02  1.955E+00
   1    3    6     3     2    1.7175E+00  2.4905E-01   1.4684E+00  0.000E+00  0.000E+00  0.000E+00  1.07264E+03  1.727E+00  8.909E+00  6.682E-02  1.864E+00
   1    3    7     3     3    1.4684E+00  1.9718E-01   1.2712E+00  0.000E+00  0.000E+00  0.000E+00  1.06987E+03  1.555E+00  8.218E+00  5.547E-02  1.777E+00
   1    4    8     3     4    1.2712E+00  2.2567E-01   1.0456E+00  0.000E+00  0.000E+00  0.000E+00  1.06682E+03  1.364E+00  7.455E+00  6.709E-02  1.682E+00
   1    5    8     3     5    1.0456E+00  1.5790E-01   8.8768E-01  0.000E+00  0.000E+00  0.000E+00  1.06362E+03  1.164E+00  6.655E+00  4.991E-02  1.582E+00
   1    6    8     3     6    8.8768E-01  5.5980E-02   8.3170E-01  0.000E+00  0.000E+00  0.000E+00  1.06158E+03  1.036E+00  6.145E+00  1.844E-02  1.518E+00
   1    5   10     4     1    1.0000E+01  9.0919E-02   9.9091E+00  0.000E+00  0.000E+00  0.000E+00  1.07836E+03  6.368E-01  1.000E+01  2.500E-02  1.212E+00
   1    5    9     4     2    9.9091E+00  1.8158E-01   9.7275E+00  0.000E+00  0.000E+00  0.000E+00  1.07154E+03  6.315E-01  1.000E+01  5.000E-02  1.211E+00
   1    6    8     4     3    9.7275E+00  1.2689E-01   9.6006E+00  0.000E+00  0.000E+00  0.000E+00  1.06381E+03  6.256E-01  1.000E+01  3.500E-02  1.209E+00
   1    6    8     5     1    1.0432E+01  2.2686E-01   1.0205E+01  0.000E+00  0.000E+00  0.000E+00  1.05868E+03  6.790E-01  1.542E+01  6.166E-02  1.226E+00
   1    7    7     5     2    1.0205E+01  2.7894E-01   9.9265E+00  0.000E+00  0.000E+00  0.000E+00  1.05417E+03  6.732E-01  1.519E+01  7.594E-02  1.224E+00
   1    8    7     5     3    9.9265E+00  1.9221E-01   9.7343E+00  0.000E+00  0.000E+00  0.000E+00  1.04992E+03  6.676E-01  1.497E+01  5.241E-02  1.223E+00
   1    8    6     5     4    9.7343E+00  1.3577E-01   9.5985E+00  0.000E+00  0.000E+00  0.000E+00  1.04691E+03  6.637E-01  1.482E+01  3.706E-02  1.221E+00
   1    9    6     6     1    1.0146E+01  2.2237E-01   9.9237E+00  0.000E+00  0.000E+00  0.000E+00  1.04343E+03  7.061E-01  1.200E+01  6.000E-02  1.235E+00
   1   10    7     6     2    9.9237E+00  2.2180E-01   9.7019E+00  0.000E+00  0.000E+00  0.000E+00  1.03888E+03  6.967E-01  1.200E+01  6.000E-02  1.232E+00
   1   11    7     6     3    9.7019E+00  2.2123E-01   9.4806E+00  0.000E+00  0.000E+00  0.000E+00  1.03432E+03  6.872E-01  1.200E+01  6.000E-02  1.229E+00
   1   12    7     6     4    9.4806E+00  2.2066E-01   9.2600E+00  0.000E+00  0.000E+00  0.000E+00  1.02977E+03  6.777E-01  1.200E+01  6.000E-02  1.226E+00
   1   13    7     6     5    9.2600E+00 -9.8940E-02   9.3589E+00  0.000E+00  0.000E+00  0.000E+00  1.02658E+03  6.750E-01  1.200E+01  2.400E-01 -1.374E-01
   1   14    9     7     1    1.5000E+02  1.3249E+00   1.4868E+02  0.000E+00  0.000E+00  0.000E+00  1.03987E+03  2.288E+00  5.529E+01  5.593E-01  7.896E-01
   1   13    8     7     2    1.4868E+02  1.8290E+00   1.4685E+02  0.000E+00  0.000E+00  0.000E+00  1.03478E+03  2.279E+00  5.526E+01  6.148E-01  9.917E-01
   1   13    7     7     3    1.4685E+02  1.5042E+00   1.4534E+02  0.000E+00  0.000E+00  0.000E+00  1.02969E+03  2.270E+00  5.522E+01  5.585E-01  8.978E-01
   1   13    6     8     1    1.5470E+02  8.5541E-01   1.5385E+02  0.000E+00  0.000E+00  0.000E+00  1.02472E+03  2.847E+00  4.128E+01  4.206E-01  6.779E-01
   1   13    5     8     2    1.5385E+02  1.1720E-01   1.5373E+02  0.000E+00  0.000E+00  0.000E+00  1.01847E+03  2.843E+00  4.123E+01  4.201E-01  9.299E-02
   1   13    4     8     3    1.5373E+02 -2.6252E+00   1.5635E+02  0.000E+00  0.000E+00  0.000E+00  1.01223E+03  2.852E+00  4.135E+01  4.214E+00 -2.076E-01
   1   13    3     8     4    1.5635E+02 -3.6598E+00   1.6001E+02  0.000E+00  0.000E+00  0.000E+00  1.00600E+03  2.874E+00  4.167E+01  4.246E+00 -2.873E-01
   1   13    2     8     5    1.6001E+02 -2.4272E+00   1.6244E+02  0.000E+00  0.000E+00  0.000E+00  9.99769E+02  2.894E+00  4.196E+01  4.276E+00 -1.892E-01
   1   13    1     8     6    1.6244E+02 -1.7920E+00   1.6423E+02  0.000E+00  0.000E+00  0.000E+00  9.94783E+02  2.908E+00  4.217E+01  2.578E+00 -2.317E-01
   1    6    8     9     1    0.0000E+00  0.0000E+00   0.0000E+00  0.000E+00  0.000E+00  0.000E+00  1.07850E+03  0.000E+00  4.000E+00  0.000E+00  1.000E+00



 UBDSV3 SAVING "     NETRECHARGE" ON UNIT 100 AT TIME STEP     2, STRESS PERIOD   2
 UBDSV3 SAVING "    NETDISCHARGE" ON UNIT 101 AT TIME STEP     2, STRESS PERIOD   2
 UBDSV3 SAVING "           GW ET" ON UNIT  61 AT TIME STEP     2, STRESS PERIOD   2
 UBDSV3 SAVING "    UZF RECHARGE" ON UNIT  61 AT TIME STEP     2, STRESS PERIOD   2
 UBDSV3 SAVING " SURFACE LEAKAGE" ON UNIT  61 AT TIME STEP     2, STRESS PERIOD   2
 UBDSV3 SAVING "       HORT+DUNN" ON UNIT  61 AT TIME STEP     2, STRESS PERIOD   2
 UBDSV3 SAVING "  STORAGE CHANGE" ON UNIT  61 AT TIME STEP     2, STRESS PERIOD   2


UNSATURATED ZONE PACKAGE VOLUMETRIC BUDGET FOR  TIME STEP     2 STRESS PERIOD    2
  ------------------------------------------------------------------------------



     CUMULATIVE VOLUMES      L**3       RATES FOR THIS TIME STEP      L**3/T
     ------------------                 ------------------------

           IN:                                      IN:
           ---                                      ---
        INFILTRATION =      183082.4255          INFILTRATION =       0.0000E+00

          OUT:                                     OUT:
          ----                                     ----
              UZF ET =       50801.9232                UZF ET =           0.2900
        UZF RECHARGE =     5153545.1006          UZF RECHARGE =          28.3302

            IN - OUT =    -5021264.5983              IN - OUT =         -28.6202

          STORAGE:                                 STORAGE:
          --------                                 --------
      STORAGE CHANGE =    -5017346.3710        STORAGE CHANGE =         -28.6200

 PERCENT DISCREPANCY IS DIFFERENCE BETWEEN IN-OUT MINUS CHANGE IN STORAGE
 DIVIDED BY THE AVERAGE OF IN AND OUT TIMES 100

 PERCENT DISCREPANCY =          -0.02     PERCENT DISCREPANCY =          -0.00






1
  VOLUMETRIC BUDGET FOR ENTIRE MODEL AT END OF TIME STEP    2, STRESS PERIOD   2
  ------------------------------------------------------------------------------

     CUMULATIVE VOLUMES      L**3       RATES FOR THIS TIME STEP      L**3/T
     ------------------                 ------------------------

           IN:                                      IN:
           ---                                      ---
             STORAGE     =      131988.7656               STORAGE     =           0.7358
       CONSTANT HEAD     =           0.0000         CONSTANT HEAD     =           0.0000
               WELLS     =           0.0000                 WELLS     =           0.0000
     HEAD DEP BOUNDS     =       74593.6641       HEAD DEP BOUNDS     =           0.2850
      STREAM LEAKAGE     =     2716366.5000        STREAM LEAKAGE     =          10.3707
        UZF RECHARGE     =     5153545.0000          UZF RECHARGE     =          28.3302
               GW ET     =           0.0000                 GW ET     =           0.0000
     SURFACE LEAKAGE     =           0.0000       SURFACE LEAKAGE     =           0.0000
    SUPPLEMENTARY WELLS  =           0.0000      SUPPLEMENTARY WELLS  =           0.0000

                TOTAL IN =     8076494.0000                  TOTAL IN =          39.7218

          OUT:                                     OUT:
          ----                                     ----
             STORAGE     =     5072645.5000               STORAGE     =          28.8287
       CONSTANT HEAD     =           0.0000         CONSTANT HEAD     =           0.0000
               WELLS     =           0.0000                 WELLS     =           0.0000
     HEAD DEP BOUNDS     =       74254.9062       HEAD DEP BOUNDS     =           0.2842
      STREAM LEAKAGE     =     2746210.5000        STREAM LEAKAGE     =          10.6031
        UZF RECHARGE     =           0.0000          UZF RECHARGE     =           0.0000
               GW ET     =      151085.3438                 GW ET     =       3.0357E-10
     SURFACE LEAKAGE     =           0.0000       SURFACE LEAKAGE     =           0.0000
    SUPPLEMENTARY WELLS  =       31277.0352      SUPPLEMENTARY WELLS  =           0.0000

               TOTAL OUT =     8075473.5000                 TOTAL OUT =          39.7160

                IN - OUT =        1020.5000                  IN - OUT =       5.8022E-03

     PERCENT DISCREPANCY =           0.01         PERCENT DISCREPANCY =           0.01






         TIME SUMMARY AT END OF TIME STEP    2 IN STRESS PERIOD    2
                    SECONDS     MINUTES      HOURS       DAYS        YEARS
                    -----------------------------------------------------------
   TIME STEP LENGTH  87600.      1460.0      24.333      1.0139     2.77588E-03
 STRESS PERIOD TIME 1.75200E+05  2920.0      48.667      2.0278     5.55175E-03
         TOTAL TIME 2.61600E+05  4360.0      72.667      3.0278     8.28960E-03
1
 
 SOLVING FOR HEAD 
                                                   Max.-Head-Change                         Max.-Flux-Residual
  Residual-Control   Outer-Iter.   Inner-Iter.     Column Row Layer    Maximum-Head-Change  Column Row Layer    Maximum-Flux-Residual          L2-NORM 
          0                 1           2             8    6     1      -0.8182247143E-02       8    6    1        -0.4422078435E+00      0.1802370107E+01
          0                 2           2             1   12     1       0.2531144428E-02       8    6    1        -0.7253522061E-01      0.5322490114E+00
          0                 3           2             1   12     1       0.1134757467E-02       1   12    1         0.2953452276E-01      0.2148344711E+00
          0                 4           2             2   11     1       0.5091374916E-03       2   11    1         0.1324105312E-01      0.9443580864E-01
          0                 5           2             2   11     1       0.2284154891E-03       2   11    1         0.5940984460E-02      0.4210130096E-01
          0                 6           1             2   11     1       0.1024616993E-03       2   11    1         0.2665255007E-02      0.1880989689E-01
          0                 7           1             2   11     1       0.4595625886E-04       2   11    1         0.1195542142E-02      0.8407035220E-02
          0                 8           1             2   11     1       0.2060993282E-04       2   11    1         0.5362143237E-03      0.3757963078E-02
          0                 9           1             2   11     1       0.9241851661E-05       2   11    1         0.2404700799E-03      0.1679957446E-02

    ------------------------------------------------
       NWT REQUIRED            9 OUTER ITERATIONS 
       AND A TOTAL OF         14 INNER ITERATIONS.
    ------------------------------------------------

 OUTPUT CONTROL WAS SPECIFIED FOR A NONEXISTENT TIME STEP
 OR OUTPUT CONTROL DATA ARE NOT ENTERED IN ASCENDING ORDER
 OUTPUT CONTROL STRESS PERIOD    1   TIME STEP   10
 MODEL STRESS PERIOD    2   TIME STEP    3
 APPLYING THE SPECIFIED OUTPUT CONTROL TO THE CURRENT TIME STEP

 OUTPUT CONTROL FOR STRESS PERIOD    2   TIME STEP    3
    PRINT BUDGET
    SAVE BUDGET
 UBUDSV SAVING "         STORAGE" ON UNIT102 AT TIME STEP     3, STRESS PERIOD    2
 UBUDSV SAVING "   CONSTANT HEAD" ON UNIT102 AT TIME STEP     3, STRESS PERIOD    2
 UBUDSV SAVING "FLOW RIGHT FACE " ON UNIT102 AT TIME STEP     3, STRESS PERIOD    2
 UBUDSV SAVING "FLOW FRONT FACE " ON UNIT102 AT TIME STEP     3, STRESS PERIOD    2

  HEAD DEP BOUNDS   PERIOD    2   STEP     3
 BOUNDARY      1   LAYER   1   ROW    13   COL     1   RATE   -0.284477    
 BOUNDARY      2   LAYER   1   ROW    14   COL     9   RATE    0.284889    



 STREAM LISTING     PERIOD      2   STEP        3

 LAYER ROW COL. STREAM  RCH.  FLOW INTO     FLOW TO   FLOW OUT OF   OVRLND.     DIRECT     STREAM       STREAM     STREAM     STREAM   STREAMBED  STREAMBED
                SEG.NO.  NO.  STRM. RCH.    AQUIFER    STRM. RCH.    RUNOFF     PRECIP       ET          HEAD       DEPTH      WIDTH   CONDCTNC.   GRADIENT

   1    1    1     1     1    4.0000E+00  8.7855E-02   3.9121E+00  0.000E+00  0.000E+00  0.000E+00  1.09374E+03  6.973E-01  5.280E+00  2.376E-02  1.232E+00
   1    2    2     1     2    3.9121E+00  1.3511E-01   3.7770E+00  0.000E+00  0.000E+00  0.000E+00  1.08875E+03  6.904E-01  5.230E+00  3.661E-02  1.230E+00
   1    3    3     1     3    3.7770E+00  1.1429E-01   3.6628E+00  0.000E+00  0.000E+00  0.000E+00  1.08310E+03  6.825E-01  5.172E+00  3.103E-02  1.228E+00
   1    3    4     1     4    3.6628E+00  1.0446E-01   3.5583E+00  0.000E+00  0.000E+00  0.000E+00  1.07808E+03  6.755E-01  5.121E+00  2.842E-02  1.225E+00
   1    4    5     2     1    1.5583E+00  2.5094E-01   1.3074E+00  0.000E+00  0.000E+00  0.000E+00  1.07215E+03  2.172E-01  1.200E+01  7.800E-02  1.072E+00
   1    5    6     2     2    1.3074E+00  1.9178E-01   1.1156E+00  0.000E+00  0.000E+00  0.000E+00  1.06671E+03  1.964E-01  1.200E+01  6.000E-02  1.065E+00
   1    6    6     2     3    1.1156E+00  1.9063E-01   9.2494E-01  0.000E+00  0.000E+00  0.000E+00  1.06197E+03  1.772E-01  1.200E+01  6.000E-02  1.059E+00
   1    7    6     2     4    9.2494E-01  1.8939E-01   7.3554E-01  0.000E+00  0.000E+00  0.000E+00  1.05723E+03  1.566E-01  1.200E+01  6.000E-02  1.052E+00
   1    8    6     2     5    7.3554E-01  1.8805E-01   5.4750E-01  0.000E+00  0.000E+00  0.000E+00  1.05249E+03  1.341E-01  1.200E+01  6.000E-02  1.045E+00
   1    3    5     3     1    2.0000E+00  2.8252E-01   1.7175E+00  0.000E+00  0.000E+00  0.000E+00  1.07555E+03  1.909E+00  9.636E+00  7.227E-02  1.955E+00
   1    3    6     3     2    1.7175E+00  2.4905E-01   1.4684E+00  0.000E+00  0.000E+00  0.000E+00  1.07264E+03  1.727E+00  8.909E+00  6.682E-02  1.864E+00
   1    3    7     3     3    1.4684E+00  1.9718E-01   1.2712E+00  0.000E+00  0.000E+00  0.000E+00  1.06987E+03  1.555E+00  8.218E+00  5.547E-02  1.777E+00
   1    4    8     3     4    1.2712E+00  2.2567E-01   1.0456E+00  0.000E+00  0.000E+00  0.000E+00  1.06682E+03  1.364E+00  7.455E+00  6.709E-02  1.682E+00
   1    5    8     3     5    1.0456E+00  1.5790E-01   8.8768E-01  0.000E+00  0.000E+00  0.000E+00  1.06362E+03  1.164E+00  6.655E+00  4.991E-02  1.582E+00
   1    6    8     3     6    8.8768E-01  5.5980E-02   8.3170E-01  0.000E+00  0.000E+00  0.000E+00  1.06158E+03  1.036E+00  6.145E+00  1.844E-02  1.518E+00
   1    5   10     4     1    1.0000E+01  9.0919E-02   9.9091E+00  0.000E+00  0.000E+00  0.000E+00  1.07836E+03  6.368E-01  1.000E+01  2.500E-02  1.212E+00
   1    5    9     4     2    9.9091E+00  1.8158E-01   9.7275E+00  0.000E+00  0.000E+00  0.000E+00  1.07154E+03  6.315E-01  1.000E+01  5.000E-02  1.211E+00
   1    6    8     4     3    9.7275E+00  1.2689E-01   9.6006E+00  0.000E+00  0.000E+00  0.000E+00  1.06381E+03  6.256E-01  1.000E+01  3.500E-02  1.209E+00
   1    6    8     5     1    1.0432E+01  2.2686E-01   1.0205E+01  0.000E+00  0.000E+00  0.000E+00  1.05868E+03  6.790E-01  1.542E+01  6.166E-02  1.226E+00
   1    7    7     5     2    1.0205E+01  2.7894E-01   9.9265E+00  0.000E+00  0.000E+00  0.000E+00  1.05417E+03  6.732E-01  1.519E+01  7.594E-02  1.224E+00
   1    8    7     5     3    9.9265E+00  1.9221E-01   9.7343E+00  0.000E+00  0.000E+00  0.000E+00  1.04992E+03  6.676E-01  1.497E+01  5.241E-02  1.223E+00
   1    8    6     5     4    9.7343E+00  1.3577E-01   9.5985E+00  0.000E+00  0.000E+00  0.000E+00  1.04691E+03  6.637E-01  1.482E+01  3.706E-02  1.221E+00
   1    9    6     6     1    1.0146E+01  2.2237E-01   9.9237E+00  0.000E+00  0.000E+00  0.000E+00  1.04343E+03  7.061E-01  1.200E+01  6.000E-02  1.235E+00
   1   10    7     6     2    9.9237E+00  2.2180E-01   9.7019E+00  0.000E+00  0.000E+00  0.000E+00  1.03888E+03  6.967E-01  1.200E+01  6.000E-02  1.232E+00
   1   11    7     6     3    9.7019E+00  2.2123E-01   9.4806E+00  0.000E+00  0.000E+00  0.000E+00  1.03432E+03  6.872E-01  1.200E+01  6.000E-02  1.229E+00
   1   12    7     6     4    9.4806E+00  2.2066E-01   9.2600E+00  0.000E+00  0.000E+00  0.000E+00  1.02977E+03  6.777E-01  1.200E+01  6.000E-02  1.226E+00
   1   13    7     6     5    9.2600E+00 -1.0096E-01   9.3609E+00  0.000E+00  0.000E+00  0.000E+00  1.02658E+03  6.751E-01  1.200E+01  2.400E-01 -1.402E-01
   1   14    9     7     1    1.5000E+02  1.3230E+00   1.4868E+02  0.000E+00  0.000E+00  0.000E+00  1.03987E+03  2.288E+00  5.529E+01  5.593E-01  7.885E-01
   1   13    8     7     2    1.4868E+02  1.8269E+00   1.4685E+02  0.000E+00  0.000E+00  0.000E+00  1.03478E+03  2.279E+00  5.526E+01  6.148E-01  9.905E-01
   1   13    7     7     3    1.4685E+02  1.4995E+00   1.4535E+02  0.000E+00  0.000E+00  0.000E+00  1.02969E+03  2.271E+00  5.522E+01  5.585E-01  8.950E-01
   1   13    6     8     1    1.5471E+02  8.5179E-01   1.5386E+02  0.000E+00  0.000E+00  0.000E+00  1.02472E+03  2.847E+00  4.128E+01  4.206E-01  6.750E-01
   1   13    5     8     2    1.5386E+02  1.1363E-01   1.5375E+02  0.000E+00  0.000E+00  0.000E+00  1.01847E+03  2.843E+00  4.123E+01  4.201E-01  9.015E-02
   1   13    4     8     3    1.5375E+02 -2.6542E+00   1.5640E+02  0.000E+00  0.000E+00  0.000E+00  1.01223E+03  2.852E+00  4.136E+01  4.214E+00 -2.099E-01
   1   13    3     8     4    1.5640E+02 -3.6885E+00   1.6009E+02  0.000E+00  0.000E+00  0.000E+00  1.00600E+03  2.874E+00  4.167E+01  4.247E+00 -2.895E-01
   1   13    2     8     5    1.6009E+02 -2.4564E+00   1.6255E+02  0.000E+00  0.000E+00  0.000E+00  9.99770E+02  2.895E+00  4.197E+01  4.277E+00 -1.914E-01
   1   13    1     8     6    1.6255E+02 -1.8110E+00   1.6436E+02  0.000E+00  0.000E+00  0.000E+00  9.94784E+02  2.909E+00  4.218E+01  2.579E+00 -2.341E-01
   1    6    8     9     1    0.0000E+00  0.0000E+00   0.0000E+00  0.000E+00  0.000E+00  0.000E+00  1.07850E+03  0.000E+00  4.000E+00  0.000E+00  1.000E+00



 UBDSV3 SAVING "     NETRECHARGE" ON UNIT 100 AT TIME STEP     3, STRESS PERIOD   2
 UBDSV3 SAVING "    NETDISCHARGE" ON UNIT 101 AT TIME STEP     3, STRESS PERIOD   2
 UBDSV3 SAVING "           GW ET" ON UNIT  61 AT TIME STEP     3, STRESS PERIOD   2
 UBDSV3 SAVING "    UZF RECHARGE" ON UNIT  61 AT TIME STEP     3, STRESS PERIOD   2
 UBDSV3 SAVING " SURFACE LEAKAGE" ON UNIT  61 AT TIME STEP     3, STRESS PERIOD   2
 UBDSV3 SAVING "       HORT+DUNN" ON UNIT  61 AT TIME STEP     3, STRESS PERIOD   2
 UBDSV3 SAVING "  STORAGE CHANGE" ON UNIT  61 AT TIME STEP     3, STRESS PERIOD   2


UNSATURATED ZONE PACKAGE VOLUMETRIC BUDGET FOR  TIME STEP     3 STRESS PERIOD    2
  ------------------------------------------------------------------------------



     CUMULATIVE VOLUMES      L**3       RATES FOR THIS TIME STEP      L**3/T
     ------------------                 ------------------------

           IN:                                      IN:
           ---                                      ---
        INFILTRATION =      183082.4255          INFILTRATION =       0.0000E+00

          OUT:                                     OUT:
          ----                                     ----
              UZF ET =       76205.9232                UZF ET =           0.2900
        UZF RECHARGE =     7629303.4339          UZF RECHARGE =          28.2621

            IN - OUT =    -7522426.9316              IN - OUT =         -28.5521

          STORAGE:                                 STORAGE:
          --------                                 --------
      STORAGE CHANGE =    -7518498.2032        STORAGE CHANGE =         -28.5520

 PERCENT DISCREPANCY IS DIFFERENCE BETWEEN IN-OUT MINUS CHANGE IN STORAGE
 DIVIDED BY THE AVERAGE OF IN AND OUT TIMES 100

 PERCENT DISCREPANCY =          -0.01     PERCENT DISCREPANCY =          -0.00






1
  VOLUMETRIC BUDGET FOR ENTIRE MODEL AT END OF TIME STEP    3, STRESS PERIOD   2
  ------------------------------------------------------------------------------

     CUMULATIVE VOLUMES      L**3       RATES FOR THIS TIME STEP      L**3/T
     ------------------                 ------------------------

           IN:                                      IN:
           ---                                      ---
             STORAGE     =      192841.8125               STORAGE     =           0.6947
       CONSTANT HEAD     =           0.0000         CONSTANT HEAD     =           0.0000
               WELLS     =           0.0000                 WELLS     =           0.0000
     HEAD DEP BOUNDS     =       99549.9766       HEAD DEP BOUNDS     =           0.2849
      STREAM LEAKAGE     =     3623449.2500        STREAM LEAKAGE     =          10.3548
        UZF RECHARGE     =     7629303.0000          UZF RECHARGE     =          28.2621
               GW ET     =           0.0000                 GW ET     =           0.0000
     SURFACE LEAKAGE     =           0.0000       SURFACE LEAKAGE     =           0.0000
    SUPPLEMENTARY WELLS  =           0.0000      SUPPLEMENTARY WELLS  =           0.0000

                TOTAL IN =    11545144.0000                  TOTAL IN =          39.5965

          OUT:                                     OUT:
          ----                                     ----
             STORAGE     =     7577575.5000               STORAGE     =          28.5951
       CONSTANT HEAD     =           0.0000         CONSTANT HEAD     =           0.0000
               WELLS     =           0.0000                 WELLS     =           0.0000
     HEAD DEP BOUNDS     =       99175.1172       HEAD DEP BOUNDS     =           0.2845
      STREAM LEAKAGE     =     3684504.0000        STREAM LEAKAGE     =          10.7111
        UZF RECHARGE     =           0.0000          UZF RECHARGE     =           0.0000
               GW ET     =      151085.3438                 GW ET     =       3.0360E-10
     SURFACE LEAKAGE     =           0.0000       SURFACE LEAKAGE     =           0.0000
    SUPPLEMENTARY WELLS  =       31277.0352      SUPPLEMENTARY WELLS  =           0.0000

               TOTAL OUT =    11543616.0000                 TOTAL OUT =          39.5907

                IN - OUT =        1528.0000                  IN - OUT =       5.7831E-03

     PERCENT DISCREPANCY =           0.01         PERCENT DISCREPANCY =           0.01






         TIME SUMMARY AT END OF TIME STEP    3 IN STRESS PERIOD    2
                    SECONDS     MINUTES      HOURS       DAYS        YEARS
                    -----------------------------------------------------------
   TIME STEP LENGTH  87600.      1460.0      24.333      1.0139     2.77588E-03
 STRESS PERIOD TIME 2.62800E+05  4380.0      73.000      3.0417     8.32763E-03
         TOTAL TIME 3.49200E+05  5820.0      97.000      4.0417     1.10655E-02
1
 
 SOLVING FOR HEAD 
                                                   Max.-Head-Change                         Max.-Flux-Residual
  Residual-Control   Outer-Iter.   Inner-Iter.     Column Row Layer    Maximum-Head-Change  Column Row Layer    Maximum-Flux-Residual          L2-NORM 
          0                 1           2             8    6     1      -0.7725779491E-02       8    6    1        -0.4176028502E+00      0.1769262092E+01
          0                 2           2             1   12     1       0.2527085599E-02       8    6    1        -0.6848217475E-01      0.5276148380E+00
          0                 3           2             2   11     1       0.1133180451E-02       1   12    1         0.2948664228E-01      0.2136871383E+00
          0                 4           2             2   11     1       0.5083912100E-03       2   11    1         0.1322280952E-01      0.9398802887E-01
          0                 5           2             2   11     1       0.2280568269E-03       2   11    1         0.5932159820E-02      0.4190757456E-01
          0                 6           1             2   11     1       0.1022904903E-03       2   11    1         0.2661019578E-02      0.1872482565E-01
          0                 7           1             2   11     1       0.4587500090E-04       2   11    1         0.1193522633E-02      0.8369585960E-02
          0                 8           1             2   11     1       0.2057155816E-04       2   11    1         0.5352567765E-03      0.3741471992E-02
          0                 9           1             2   11     1       0.9223807275E-05       2   11    1         0.2400182540E-03      0.1672693073E-02

    ------------------------------------------------
       NWT REQUIRED            9 OUTER ITERATIONS 
       AND A TOTAL OF         14 INNER ITERATIONS.
    ------------------------------------------------

 OUTPUT CONTROL WAS SPECIFIED FOR A NONEXISTENT TIME STEP
 OR OUTPUT CONTROL DATA ARE NOT ENTERED IN ASCENDING ORDER
 OUTPUT CONTROL STRESS PERIOD    1   TIME STEP   15
 MODEL STRESS PERIOD    2   TIME STEP    4
 APPLYING THE SPECIFIED OUTPUT CONTROL TO THE CURRENT TIME STEP

 OUTPUT CONTROL FOR STRESS PERIOD    2   TIME STEP    4
    PRINT BUDGET
    PRINT HEAD FOR ALL LAYERS
    SAVE HEAD FOR ALL LAYERS
    SAVE BUDGET
 UBUDSV SAVING "         STORAGE" ON UNIT102 AT TIME STEP     4, STRESS PERIOD    2
 UBUDSV SAVING "   CONSTANT HEAD" ON UNIT102 AT TIME STEP     4, STRESS PERIOD    2
 UBUDSV SAVING "FLOW RIGHT FACE " ON UNIT102 AT TIME STEP     4, STRESS PERIOD    2
 UBUDSV SAVING "FLOW FRONT FACE " ON UNIT102 AT TIME STEP     4, STRESS PERIOD    2

  HEAD DEP BOUNDS   PERIOD    2   STEP     4
 BOUNDARY      1   LAYER   1   ROW    13   COL     1   RATE   -0.284764    
 BOUNDARY      2   LAYER   1   ROW    14   COL     9   RATE    0.284764    



 STREAM LISTING     PERIOD      2   STEP        4

 LAYER ROW COL. STREAM  RCH.  FLOW INTO     FLOW TO   FLOW OUT OF   OVRLND.     DIRECT     STREAM       STREAM     STREAM     STREAM   STREAMBED  STREAMBED
                SEG.NO.  NO.  STRM. RCH.    AQUIFER    STRM. RCH.    RUNOFF     PRECIP       ET          HEAD       DEPTH      WIDTH   CONDCTNC.   GRADIENT

   1    1    1     1     1    4.0000E+00  8.7855E-02   3.9121E+00  0.000E+00  0.000E+00  0.000E+00  1.09374E+03  6.973E-01  5.280E+00  2.376E-02  1.232E+00
   1    2    2     1     2    3.9121E+00  1.3511E-01   3.7770E+00  0.000E+00  0.000E+00  0.000E+00  1.08875E+03  6.904E-01  5.230E+00  3.661E-02  1.230E+00
   1    3    3     1     3    3.7770E+00  1.1429E-01   3.6628E+00  0.000E+00  0.000E+00  0.000E+00  1.08310E+03  6.825E-01  5.172E+00  3.103E-02  1.228E+00
   1    3    4     1     4    3.6628E+00  1.0446E-01   3.5583E+00  0.000E+00  0.000E+00  0.000E+00  1.07808E+03  6.755E-01  5.121E+00  2.842E-02  1.225E+00
   1    4    5     2     1    1.5583E+00  2.5094E-01   1.3074E+00  0.000E+00  0.000E+00  0.000E+00  1.07215E+03  2.172E-01  1.200E+01  7.800E-02  1.072E+00
   1    5    6     2     2    1.3074E+00  1.9178E-01   1.1156E+00  0.000E+00  0.000E+00  0.000E+00  1.06671E+03  1.964E-01  1.200E+01  6.000E-02  1.065E+00
   1    6    6     2     3    1.1156E+00  1.9063E-01   9.2494E-01  0.000E+00  0.000E+00  0.000E+00  1.06197E+03  1.772E-01  1.200E+01  6.000E-02  1.059E+00
   1    7    6     2     4    9.2494E-01  1.8939E-01   7.3554E-01  0.000E+00  0.000E+00  0.000E+00  1.05723E+03  1.566E-01  1.200E+01  6.000E-02  1.052E+00
   1    8    6     2     5    7.3554E-01  1.8805E-01   5.4750E-01  0.000E+00  0.000E+00  0.000E+00  1.05249E+03  1.341E-01  1.200E+01  6.000E-02  1.045E+00
   1    3    5     3     1    2.0000E+00  2.8252E-01   1.7175E+00  0.000E+00  0.000E+00  0.000E+00  1.07555E+03  1.909E+00  9.636E+00  7.227E-02  1.955E+00
   1    3    6     3     2    1.7175E+00  2.4905E-01   1.4684E+00  0.000E+00  0.000E+00  0.000E+00  1.07264E+03  1.727E+00  8.909E+00  6.682E-02  1.864E+00
   1    3    7     3     3    1.4684E+00  1.9718E-01   1.2712E+00  0.000E+00  0.000E+00  0.000E+00  1.06987E+03  1.555E+00  8.218E+00  5.547E-02  1.777E+00
   1    4    8     3     4    1.2712E+00  2.2567E-01   1.0456E+00  0.000E+00  0.000E+00  0.000E+00  1.06682E+03  1.364E+00  7.455E+00  6.709E-02  1.682E+00
   1    5    8     3     5    1.0456E+00  1.5790E-01   8.8768E-01  0.000E+00  0.000E+00  0.000E+00  1.06362E+03  1.164E+00  6.655E+00  4.991E-02  1.582E+00
   1    6    8     3     6    8.8768E-01  5.5980E-02   8.3170E-01  0.000E+00  0.000E+00  0.000E+00  1.06158E+03  1.036E+00  6.145E+00  1.844E-02  1.518E+00
   1    5   10     4     1    1.0000E+01  9.0919E-02   9.9091E+00  0.000E+00  0.000E+00  0.000E+00  1.07836E+03  6.368E-01  1.000E+01  2.500E-02  1.212E+00
   1    5    9     4     2    9.9091E+00  1.8158E-01   9.7275E+00  0.000E+00  0.000E+00  0.000E+00  1.07154E+03  6.315E-01  1.000E+01  5.000E-02  1.211E+00
   1    6    8     4     3    9.7275E+00  1.2689E-01   9.6006E+00  0.000E+00  0.000E+00  0.000E+00  1.06381E+03  6.256E-01  1.000E+01  3.500E-02  1.209E+00
   1    6    8     5     1    1.0432E+01  2.2686E-01   1.0205E+01  0.000E+00  0.000E+00  0.000E+00  1.05868E+03  6.790E-01  1.542E+01  6.166E-02  1.226E+00
   1    7    7     5     2    1.0205E+01  2.7894E-01   9.9265E+00  0.000E+00  0.000E+00  0.000E+00  1.05417E+03  6.732E-01  1.519E+01  7.594E-02  1.224E+00
   1    8    7     5     3    9.9265E+00  1.9221E-01   9.7343E+00  0.000E+00  0.000E+00  0.000E+00  1.04992E+03  6.676E-01  1.497E+01  5.241E-02  1.223E+00
   1    8    6     5     4    9.7343E+00  1.3577E-01   9.5985E+00  0.000E+00  0.000E+00  0.000E+00  1.04691E+03  6.637E-01  1.482E+01  3.706E-02  1.221E+00
   1    9    6     6     1    1.0146E+01  2.2237E-01   9.9237E+00  0.000E+00  0.000E+00  0.000E+00  1.04343E+03  7.061E-01  1.200E+01  6.000E-02  1.235E+00
   1   10    7     6     2    9.9237E+00  2.2180E-01   9.7019E+00  0.000E+00  0.000E+00  0.000E+00  1.03888E+03  6.967E-01  1.200E+01  6.000E-02  1.232E+00
   1   11    7     6     3    9.7019E+00  2.2123E-01   9.4806E+00  0.000E+00  0.000E+00  0.000E+00  1.03432E+03  6.872E-01  1.200E+01  6.000E-02  1.229E+00
   1   12    7     6     4    9.4806E+00  2.2066E-01   9.2600E+00  0.000E+00  0.000E+00  0.000E+00  1.02977E+03  6.777E-01  1.200E+01  6.000E-02  1.226E+00
   1   13    7     6     5    9.2600E+00 -1.0292E-01   9.3629E+00  0.000E+00  0.000E+00  0.000E+00  1.02658E+03  6.751E-01  1.200E+01  2.400E-01 -1.429E-01
   1   14    9     7     1    1.5000E+02  1.3212E+00   1.4868E+02  0.000E+00  0.000E+00  0.000E+00  1.03987E+03  2.288E+00  5.529E+01  5.593E-01  7.874E-01
   1   13    8     7     2    1.4868E+02  1.8247E+00   1.4685E+02  0.000E+00  0.000E+00  0.000E+00  1.03478E+03  2.279E+00  5.526E+01  6.148E-01  9.893E-01
   1   13    7     7     3    1.4685E+02  1.4949E+00   1.4536E+02  0.000E+00  0.000E+00  0.000E+00  1.02969E+03  2.271E+00  5.522E+01  5.585E-01  8.923E-01
   1   13    6     8     1    1.5472E+02  8.4824E-01   1.5387E+02  0.000E+00  0.000E+00  0.000E+00  1.02472E+03  2.847E+00  4.128E+01  4.206E-01  6.722E-01
   1   13    5     8     2    1.5387E+02  1.1015E-01   1.5376E+02  0.000E+00  0.000E+00  0.000E+00  1.01847E+03  2.844E+00  4.123E+01  4.202E-01  8.739E-02
   1   13    4     8     3    1.5376E+02 -2.6806E+00   1.5644E+02  0.000E+00  0.000E+00  0.000E+00  1.01223E+03  2.852E+00  4.136E+01  4.215E+00 -2.120E-01
   1   13    3     8     4    1.5644E+02 -3.7146E+00   1.6016E+02  0.000E+00  0.000E+00  0.000E+00  1.00600E+03  2.874E+00  4.168E+01  4.247E+00 -2.915E-01
   1   13    2     8     5    1.6016E+02 -2.4832E+00   1.6264E+02  0.000E+00  0.000E+00  0.000E+00  9.99770E+02  2.895E+00  4.198E+01  4.278E+00 -1.935E-01
   1   13    1     8     6    1.6264E+02 -1.8291E+00   1.6447E+02  0.000E+00  0.000E+00  0.000E+00  9.94785E+02  2.910E+00  4.219E+01  2.580E+00 -2.364E-01
   1    6    8     9     1    0.0000E+00  0.0000E+00   0.0000E+00  0.000E+00  0.000E+00  0.000E+00  1.07850E+03  0.000E+00  4.000E+00  0.000E+00  1.000E+00



 UBDSV3 SAVING "     NETRECHARGE" ON UNIT 100 AT TIME STEP     4, STRESS PERIOD   2
 UBDSV3 SAVING "    NETDISCHARGE" ON UNIT 101 AT TIME STEP     4, STRESS PERIOD   2
 UBDSV3 SAVING "           GW ET" ON UNIT  61 AT TIME STEP     4, STRESS PERIOD   2
 UBDSV3 SAVING "    UZF RECHARGE" ON UNIT  61 AT TIME STEP     4, STRESS PERIOD   2
 UBDSV3 SAVING " SURFACE LEAKAGE" ON UNIT  61 AT TIME STEP     4, STRESS PERIOD   2
 UBDSV3 SAVING "       HORT+DUNN" ON UNIT  61 AT TIME STEP     4, STRESS PERIOD   2
 UBDSV3 SAVING "  STORAGE CHANGE" ON UNIT  61 AT TIME STEP     4, STRESS PERIOD   2


UNSATURATED ZONE PACKAGE VOLUMETRIC BUDGET FOR  TIME STEP     4 STRESS PERIOD    2
  ------------------------------------------------------------------------------



     CUMULATIVE VOLUMES      L**3       RATES FOR THIS TIME STEP      L**3/T
     ------------------                 ------------------------

           IN:                                      IN:
           ---                                      ---
        INFILTRATION =      183082.4255          INFILTRATION =       0.0000E+00

          OUT:                                     OUT:
          ----                                     ----
              UZF ET =      101609.9232                UZF ET =           0.2900
        UZF RECHARGE =    10099583.9417          UZF RECHARGE =          28.1995

            IN - OUT =   -10018111.4394              IN - OUT =         -28.4895

          STORAGE:                                 STORAGE:
          --------                                 --------
      STORAGE CHANGE =   -10014172.3854        STORAGE CHANGE =         -28.4894

 PERCENT DISCREPANCY IS DIFFERENCE BETWEEN IN-OUT MINUS CHANGE IN STORAGE
 DIVIDED BY THE AVERAGE OF IN AND OUT TIMES 100

 PERCENT DISCREPANCY =          -0.01     PERCENT DISCREPANCY =          -0.00






1
              HEAD IN LAYER   1 AT END OF TIME STEP     4 IN STRESS PERIOD    2
  -----------------------------------------------------------------------------

           1       2       3       4       5       6       7       8       9      10
 ...................................................................................
   1  1033.92 1032.90 6999.00 6999.00 6999.00 6999.00 6999.00 6999.00 6999.00 6999.00
   2  1033.00 1031.78 1031.18 6999.00 6999.00 1032.43 1032.62 1032.63 6999.00 6999.00
   3  6999.00 1030.88 1030.56 1030.34 1030.93 1031.63 1032.21 1032.25 6999.00 6999.00
   4  1030.09 1030.09 1029.95 1029.76 1029.87 1030.00 1030.64 1031.85 1031.63 6999.00
   5  1029.61 1029.26 1029.14 1029.07 1029.22 1029.54 1029.91 1030.60 1031.22 1031.74
   6  1028.99 1028.45 1028.30 1028.28 1028.46 1028.94 1029.51 1030.38 1030.73 1031.60
   7  1028.44 1027.40 1027.26 1027.30 1027.53 1028.05 1028.67 1029.41 1029.97 6999.00
   8  6999.00 1025.88 1025.92 1026.08 1026.34 1026.91 1027.45 1028.45 1028.96 6999.00
   9  6999.00 1023.64 1023.98 1024.43 1024.84 1025.53 1026.09 1026.95 1028.06 6999.00
  10  6999.00 1020.56 1021.34 1022.39 1023.19 1024.23 1025.15 1026.25 1027.85 1028.49
  11  6999.00 1015.78 1017.20 1019.78 1021.44 1023.19 1024.73 1026.52 1028.69 6999.00
  12  1001.96 1008.08 1012.22 1016.25 1019.55 1022.54 1025.04 1028.43 1031.41 6999.00
  13   995.49 1000.35 1006.87 1012.86 1018.21 1022.71 1027.01 1031.81 1034.67 6999.00
  14  6999.00 1005.78 1008.88 1013.53 1018.28 1022.67 1027.59 1033.10 1037.51 6999.00
  15  6999.00 6999.00 1012.51 1015.23 1018.69 1021.71 6999.00 6999.00 6999.00 6999.00

 HEAD WILL BE SAVED ON UNIT   62 AT END OF TIME STEP    4, STRESS PERIOD    2
1
  VOLUMETRIC BUDGET FOR ENTIRE MODEL AT END OF TIME STEP    4, STRESS PERIOD   2
  ------------------------------------------------------------------------------

     CUMULATIVE VOLUMES      L**3       RATES FOR THIS TIME STEP      L**3/T
     ------------------                 ------------------------

           IN:                                      IN:
           ---                                      ---
             STORAGE     =      250067.3594               STORAGE     =           0.6533
       CONSTANT HEAD     =           0.0000         CONSTANT HEAD     =           0.0000
               WELLS     =           0.0000                 WELLS     =           0.0000
     HEAD DEP BOUNDS     =      124495.2656       HEAD DEP BOUNDS     =           0.2848
      STREAM LEAKAGE     =     4529162.0000        STREAM LEAKAGE     =          10.3392
        UZF RECHARGE     =    10099583.0000          UZF RECHARGE     =          28.1995
               GW ET     =           0.0000                 GW ET     =           0.0000
     SURFACE LEAKAGE     =           0.0000       SURFACE LEAKAGE     =           0.0000
    SUPPLEMENTARY WELLS  =           0.0000      SUPPLEMENTARY WELLS  =           0.0000

                TOTAL IN =    15003308.0000                  TOTAL IN =          39.4768

          OUT:                                     OUT:
          ----                                     ----
             STORAGE     =    10063295.0000               STORAGE     =          28.3758
       CONSTANT HEAD     =           0.0000         CONSTANT HEAD     =           0.0000
               WELLS     =           0.0000                 WELLS     =           0.0000
     HEAD DEP BOUNDS     =      124120.4375       HEAD DEP BOUNDS     =           0.2848
      STREAM LEAKAGE     =     4631499.0000        STREAM LEAKAGE     =          10.8104
        UZF RECHARGE     =           0.0000          UZF RECHARGE     =           0.0000
               GW ET     =      151085.3438                 GW ET     =       3.0358E-10
     SURFACE LEAKAGE     =           0.0000       SURFACE LEAKAGE     =           0.0000
    SUPPLEMENTARY WELLS  =       31277.0352      SUPPLEMENTARY WELLS  =           0.0000

               TOTAL OUT =    15001276.0000                 TOTAL OUT =          39.4710

                IN - OUT =        2032.0000                  IN - OUT =       5.7564E-03

     PERCENT DISCREPANCY =           0.01         PERCENT DISCREPANCY =           0.01






         TIME SUMMARY AT END OF TIME STEP    4 IN STRESS PERIOD    2
                    SECONDS     MINUTES      HOURS       DAYS        YEARS
                    -----------------------------------------------------------
   TIME STEP LENGTH  87600.      1460.0      24.333      1.0139     2.77588E-03
 STRESS PERIOD TIME 3.50400E+05  5840.0      97.333      4.0556     1.11035E-02
         TOTAL TIME 4.36800E+05  7280.0      121.33      5.0556     1.38414E-02
1
 
 SOLVING FOR HEAD 
                                                   Max.-Head-Change                         Max.-Flux-Residual
  Residual-Control   Outer-Iter.   Inner-Iter.     Column Row Layer    Maximum-Head-Change  Column Row Layer    Maximum-Flux-Residual          L2-NORM 
          0                 1           2             8    6     1      -0.7325795254E-02       8    6    1        -0.3960418057E+00      0.1740412304E+01
          0                 2           2             1   12     1       0.2522432653E-02       1   12    1         0.6561758926E-01      0.5234035468E+00
          0                 3           2             2   11     1       0.1131429941E-02       1   12    1         0.2943185363E-01      0.2125868121E+00
          0                 4           2             2   11     1       0.5075538920E-03       2   11    1         0.1320212950E-01      0.9355183881E-01
          0                 5           2             2   11     1       0.2276587322E-03       2   11    1         0.5922279795E-02      0.4171835711E-01
          0                 6           1             2   11     1       0.1021022018E-03       2   11    1         0.2656327009E-02      0.1864166332E-01
          0                 7           1             2   11     1       0.4578634604E-04       2   11    1         0.1191305120E-02      0.8332970368E-02
          0                 8           1             2   11     1       0.2052998007E-04       2   11    1         0.5342134784E-03      0.3725335477E-02
          0                 9           1             2   11     1       0.9204375398E-05       2   11    1         0.2395292869E-03      0.1665582430E-02

    ------------------------------------------------
       NWT REQUIRED            9 OUTER ITERATIONS 
       AND A TOTAL OF         14 INNER ITERATIONS.
    ------------------------------------------------

 OUTPUT CONTROL WAS SPECIFIED FOR A NONEXISTENT TIME STEP
 OR OUTPUT CONTROL DATA ARE NOT ENTERED IN ASCENDING ORDER
 OUTPUT CONTROL STRESS PERIOD    2   TIME STEP    1
 MODEL STRESS PERIOD    2   TIME STEP    5
 APPLYING THE SPECIFIED OUTPUT CONTROL TO THE CURRENT TIME STEP

 OUTPUT CONTROL FOR STRESS PERIOD    2   TIME STEP    5
    PRINT BUDGET
    SAVE BUDGET
 UBUDSV SAVING "         STORAGE" ON UNIT102 AT TIME STEP     5, STRESS PERIOD    2
 UBUDSV SAVING "   CONSTANT HEAD" ON UNIT102 AT TIME STEP     5, STRESS PERIOD    2
 UBUDSV SAVING "FLOW RIGHT FACE " ON UNIT102 AT TIME STEP     5, STRESS PERIOD    2
 UBUDSV SAVING "FLOW FRONT FACE " ON UNIT102 AT TIME STEP     5, STRESS PERIOD    2

  HEAD DEP BOUNDS   PERIOD    2   STEP     5
 BOUNDARY      1   LAYER   1   ROW    13   COL     1   RATE   -0.285035    
 BOUNDARY      2   LAYER   1   ROW    14   COL     9   RATE    0.284639    



 STREAM LISTING     PERIOD      2   STEP        5

 LAYER ROW COL. STREAM  RCH.  FLOW INTO     FLOW TO   FLOW OUT OF   OVRLND.     DIRECT     STREAM       STREAM     STREAM     STREAM   STREAMBED  STREAMBED
                SEG.NO.  NO.  STRM. RCH.    AQUIFER    STRM. RCH.    RUNOFF     PRECIP       ET          HEAD       DEPTH      WIDTH   CONDCTNC.   GRADIENT

   1    1    1     1     1    4.0000E+00  8.7855E-02   3.9121E+00  0.000E+00  0.000E+00  0.000E+00  1.09374E+03  6.973E-01  5.280E+00  2.376E-02  1.232E+00
   1    2    2     1     2    3.9121E+00  1.3511E-01   3.7770E+00  0.000E+00  0.000E+00  0.000E+00  1.08875E+03  6.904E-01  5.230E+00  3.661E-02  1.230E+00
   1    3    3     1     3    3.7770E+00  1.1429E-01   3.6628E+00  0.000E+00  0.000E+00  0.000E+00  1.08310E+03  6.825E-01  5.172E+00  3.103E-02  1.228E+00
   1    3    4     1     4    3.6628E+00  1.0446E-01   3.5583E+00  0.000E+00  0.000E+00  0.000E+00  1.07808E+03  6.755E-01  5.121E+00  2.842E-02  1.225E+00
   1    4    5     2     1    1.5583E+00  2.5094E-01   1.3074E+00  0.000E+00  0.000E+00  0.000E+00  1.07215E+03  2.172E-01  1.200E+01  7.800E-02  1.072E+00
   1    5    6     2     2    1.3074E+00  1.9178E-01   1.1156E+00  0.000E+00  0.000E+00  0.000E+00  1.06671E+03  1.964E-01  1.200E+01  6.000E-02  1.065E+00
   1    6    6     2     3    1.1156E+00  1.9063E-01   9.2494E-01  0.000E+00  0.000E+00  0.000E+00  1.06197E+03  1.772E-01  1.200E+01  6.000E-02  1.059E+00
   1    7    6     2     4    9.2494E-01  1.8939E-01   7.3554E-01  0.000E+00  0.000E+00  0.000E+00  1.05723E+03  1.566E-01  1.200E+01  6.000E-02  1.052E+00
   1    8    6     2     5    7.3554E-01  1.8805E-01   5.4750E-01  0.000E+00  0.000E+00  0.000E+00  1.05249E+03  1.341E-01  1.200E+01  6.000E-02  1.045E+00
   1    3    5     3     1    2.0000E+00  2.8252E-01   1.7175E+00  0.000E+00  0.000E+00  0.000E+00  1.07555E+03  1.909E+00  9.636E+00  7.227E-02  1.955E+00
   1    3    6     3     2    1.7175E+00  2.4905E-01   1.4684E+00  0.000E+00  0.000E+00  0.000E+00  1.07264E+03  1.727E+00  8.909E+00  6.682E-02  1.864E+00
   1    3    7     3     3    1.4684E+00  1.9718E-01   1.2712E+00  0.000E+00  0.000E+00  0.000E+00  1.06987E+03  1.555E+00  8.218E+00  5.547E-02  1.777E+00
   1    4    8     3     4    1.2712E+00  2.2567E-01   1.0456E+00  0.000E+00  0.000E+00  0.000E+00  1.06682E+03  1.364E+00  7.455E+00  6.709E-02  1.682E+00
   1    5    8     3     5    1.0456E+00  1.5790E-01   8.8768E-01  0.000E+00  0.000E+00  0.000E+00  1.06362E+03  1.164E+00  6.655E+00  4.991E-02  1.582E+00
   1    6    8     3     6    8.8768E-01  5.5980E-02   8.3170E-01  0.000E+00  0.000E+00  0.000E+00  1.06158E+03  1.036E+00  6.145E+00  1.844E-02  1.518E+00
   1    5   10     4     1    1.0000E+01  9.0919E-02   9.9091E+00  0.000E+00  0.000E+00  0.000E+00  1.07836E+03  6.368E-01  1.000E+01  2.500E-02  1.212E+00
   1    5    9     4     2    9.9091E+00  1.8158E-01   9.7275E+00  0.000E+00  0.000E+00  0.000E+00  1.07154E+03  6.315E-01  1.000E+01  5.000E-02  1.211E+00
   1    6    8     4     3    9.7275E+00  1.2689E-01   9.6006E+00  0.000E+00  0.000E+00  0.000E+00  1.06381E+03  6.256E-01  1.000E+01  3.500E-02  1.209E+00
   1    6    8     5     1    1.0432E+01  2.2686E-01   1.0205E+01  0.000E+00  0.000E+00  0.000E+00  1.05868E+03  6.790E-01  1.542E+01  6.166E-02  1.226E+00
   1    7    7     5     2    1.0205E+01  2.7894E-01   9.9265E+00  0.000E+00  0.000E+00  0.000E+00  1.05417E+03  6.732E-01  1.519E+01  7.594E-02  1.224E+00
   1    8    7     5     3    9.9265E+00  1.9221E-01   9.7343E+00  0.000E+00  0.000E+00  0.000E+00  1.04992E+03  6.676E-01  1.497E+01  5.241E-02  1.223E+00
   1    8    6     5     4    9.7343E+00  1.3577E-01   9.5985E+00  0.000E+00  0.000E+00  0.000E+00  1.04691E+03  6.637E-01  1.482E+01  3.706E-02  1.221E+00
   1    9    6     6     1    1.0146E+01  2.2237E-01   9.9237E+00  0.000E+00  0.000E+00  0.000E+00  1.04343E+03  7.061E-01  1.200E+01  6.000E-02  1.235E+00
   1   10    7     6     2    9.9237E+00  2.2180E-01   9.7019E+00  0.000E+00  0.000E+00  0.000E+00  1.03888E+03  6.967E-01  1.200E+01  6.000E-02  1.232E+00
   1   11    7     6     3    9.7019E+00  2.2123E-01   9.4806E+00  0.000E+00  0.000E+00  0.000E+00  1.03432E+03  6.872E-01  1.200E+01  6.000E-02  1.229E+00
   1   12    7     6     4    9.4806E+00  2.2066E-01   9.2600E+00  0.000E+00  0.000E+00  0.000E+00  1.02977E+03  6.777E-01  1.200E+01  6.000E-02  1.226E+00
   1   13    7     6     5    9.2600E+00 -1.0482E-01   9.3648E+00  0.000E+00  0.000E+00  0.000E+00  1.02658E+03  6.752E-01  1.200E+01  2.400E-01 -1.456E-01
   1   14    9     7     1    1.5000E+02  1.3194E+00   1.4868E+02  0.000E+00  0.000E+00  0.000E+00  1.03987E+03  2.288E+00  5.529E+01  5.593E-01  7.863E-01
   1   13    8     7     2    1.4868E+02  1.8224E+00   1.4686E+02  0.000E+00  0.000E+00  0.000E+00  1.03478E+03  2.279E+00  5.526E+01  6.148E-01  9.881E-01
   1   13    7     7     3    1.4686E+02  1.4905E+00   1.4537E+02  0.000E+00  0.000E+00  0.000E+00  1.02969E+03  2.271E+00  5.522E+01  5.585E-01  8.896E-01
   1   13    6     8     1    1.5473E+02  8.4476E-01   1.5389E+02  0.000E+00  0.000E+00  0.000E+00  1.02472E+03  2.847E+00  4.128E+01  4.207E-01  6.694E-01
   1   13    5     8     2    1.5389E+02  1.0675E-01   1.5378E+02  0.000E+00  0.000E+00  0.000E+00  1.01847E+03  2.844E+00  4.123E+01  4.202E-01  8.469E-02
   1   13    4     8     3    1.5378E+02 -2.7047E+00   1.5649E+02  0.000E+00  0.000E+00  0.000E+00  1.01223E+03  2.853E+00  4.136E+01  4.215E+00 -2.139E-01
   1   13    3     8     4    1.5649E+02 -3.7384E+00   1.6022E+02  0.000E+00  0.000E+00  0.000E+00  1.00600E+03  2.875E+00  4.168E+01  4.248E+00 -2.934E-01
   1   13    2     8     5    1.6022E+02 -2.5078E+00   1.6273E+02  0.000E+00  0.000E+00  0.000E+00  9.99771E+02  2.896E+00  4.199E+01  4.279E+00 -1.954E-01
   1   13    1     8     6    1.6273E+02 -1.8462E+00   1.6458E+02  0.000E+00  0.000E+00  0.000E+00  9.94785E+02  2.910E+00  4.220E+01  2.580E+00 -2.385E-01
   1    6    8     9     1    0.0000E+00  0.0000E+00   0.0000E+00  0.000E+00  0.000E+00  0.000E+00  1.07850E+03  0.000E+00  4.000E+00  0.000E+00  1.000E+00



 UBDSV3 SAVING "     NETRECHARGE" ON UNIT 100 AT TIME STEP     5, STRESS PERIOD   2
 UBDSV3 SAVING "    NETDISCHARGE" ON UNIT 101 AT TIME STEP     5, STRESS PERIOD   2
 UBDSV3 SAVING "           GW ET" ON UNIT  61 AT TIME STEP     5, STRESS PERIOD   2
 UBDSV3 SAVING "    UZF RECHARGE" ON UNIT  61 AT TIME STEP     5, STRESS PERIOD   2
 UBDSV3 SAVING " SURFACE LEAKAGE" ON UNIT  61 AT TIME STEP     5, STRESS PERIOD   2
 UBDSV3 SAVING "       HORT+DUNN" ON UNIT  61 AT TIME STEP     5, STRESS PERIOD   2
 UBDSV3 SAVING "  STORAGE CHANGE" ON UNIT  61 AT TIME STEP     5, STRESS PERIOD   2


UNSATURATED ZONE PACKAGE VOLUMETRIC BUDGET FOR  TIME STEP     5 STRESS PERIOD    2
  ------------------------------------------------------------------------------



     CUMULATIVE VOLUMES      L**3       RATES FOR THIS TIME STEP      L**3/T
     ------------------                 ------------------------

           IN:                                      IN:
           ---                                      ---
        INFILTRATION =      183082.4255          INFILTRATION =       0.0000E+00

          OUT:                                     OUT:
          ----                                     ----
              UZF ET =      127013.9232                UZF ET =           0.2900
        UZF RECHARGE =    12564436.2230          UZF RECHARGE =          28.1376

            IN - OUT =   -12508367.7207              IN - OUT =         -28.4276

          STORAGE:                                 STORAGE:
          --------                                 --------
      STORAGE CHANGE =   -12504418.4810        STORAGE CHANGE =         -28.4275

 PERCENT DISCREPANCY IS DIFFERENCE BETWEEN IN-OUT MINUS CHANGE IN STORAGE
 DIVIDED BY THE AVERAGE OF IN AND OUT TIMES 100

 PERCENT DISCREPANCY =          -0.01     PERCENT DISCREPANCY =          -0.00






1
  VOLUMETRIC BUDGET FOR ENTIRE MODEL AT END OF TIME STEP    5, STRESS PERIOD   2
  ------------------------------------------------------------------------------

     CUMULATIVE VOLUMES      L**3       RATES FOR THIS TIME STEP      L**3/T
     ------------------                 ------------------------

           IN:                                      IN:
           ---                                      ---
             STORAGE     =      304044.7188               STORAGE     =           0.6162
       CONSTANT HEAD     =           0.0000         CONSTANT HEAD     =           0.0000
               WELLS     =           0.0000                 WELLS     =           0.0000
     HEAD DEP BOUNDS     =      149429.6094       HEAD DEP BOUNDS     =           0.2846
      STREAM LEAKAGE     =     5433529.0000        STREAM LEAKAGE     =          10.3238
        UZF RECHARGE     =    12564436.0000          UZF RECHARGE     =          28.1376
               GW ET     =           0.0000                 GW ET     =           0.0000
     SURFACE LEAKAGE     =           0.0000       SURFACE LEAKAGE     =           0.0000
    SUPPLEMENTARY WELLS  =           0.0000      SUPPLEMENTARY WELLS  =           0.0000

                TOTAL IN =    18451440.0000                  TOTAL IN =          39.3622

          OUT:                                     OUT:
          ----                                     ----
             STORAGE     =    12530950.0000               STORAGE     =          28.1696
       CONSTANT HEAD     =           0.0000         CONSTANT HEAD     =           0.0000
               WELLS     =           0.0000                 WELLS     =           0.0000
     HEAD DEP BOUNDS     =      149089.5000       HEAD DEP BOUNDS     =           0.2850
      STREAM LEAKAGE     =     5586504.5000        STREAM LEAKAGE     =          10.9019
        UZF RECHARGE     =           0.0000          UZF RECHARGE     =           0.0000
               GW ET     =      151085.3438                 GW ET     =       3.0360E-10
     SURFACE LEAKAGE     =           0.0000       SURFACE LEAKAGE     =           0.0000
    SUPPLEMENTARY WELLS  =       31277.0352      SUPPLEMENTARY WELLS  =           0.0000

               TOTAL OUT =    18448908.0000                 TOTAL OUT =          39.3565

                IN - OUT =        2532.0000                  IN - OUT =       5.7373E-03

     PERCENT DISCREPANCY =           0.01         PERCENT DISCREPANCY =           0.01






         TIME SUMMARY AT END OF TIME STEP    5 IN STRESS PERIOD    2
                    SECONDS     MINUTES      HOURS       DAYS        YEARS
                    -----------------------------------------------------------
   TIME STEP LENGTH  87600.      1460.0      24.333      1.0139     2.77588E-03
 STRESS PERIOD TIME 4.38000E+05  7300.0      121.67      5.0694     1.38794E-02
         TOTAL TIME 5.24400E+05  8740.0      145.67      6.0694     1.66172E-02
1
 
 SOLVING FOR HEAD 
                                                   Max.-Head-Change                         Max.-Flux-Residual
  Residual-Control   Outer-Iter.   Inner-Iter.     Column Row Layer    Maximum-Head-Change  Column Row Layer    Maximum-Flux-Residual          L2-NORM 
          0                 1           2             8    6     1      -0.6944550955E-02       8    6    1        -0.3754945888E+00      0.1714814171E+01
          0                 2           2             2   11     1       0.2517820610E-02       1   12    1         0.6548744680E-01      0.5195171786E+00
          0                 3           2             2   11     1       0.1129503928E-02       2   11    1         0.2937933889E-01      0.2115253190E+00
          0                 4           2             2   11     1       0.5066408677E-03       2   11    1         0.1317941639E-01      0.9312572766E-01
          0                 5           2             2   11     1       0.2272279862E-03       2   11    1         0.5911522783E-02      0.4153311412E-01
          0                 6           1             2   11     1       0.1018998336E-03       2   11    1         0.2651256218E-02      0.1856019311E-01
          0                 7           1             2   11     1       0.4569162161E-04       2   11    1         0.1188924532E-02      0.8297069402E-02
          0                 8           1             2   11     1       0.2048578545E-04       2   11    1         0.5330998699E-03      0.3709513657E-02
          0                 9           1             2   11     1       0.9183816145E-05       2   11    1         0.2390100191E-03      0.1658609844E-02

    ------------------------------------------------
       NWT REQUIRED            9 OUTER ITERATIONS 
       AND A TOTAL OF         14 INNER ITERATIONS.
    ------------------------------------------------

 OUTPUT CONTROL WAS SPECIFIED FOR A NONEXISTENT TIME STEP
 OR OUTPUT CONTROL DATA ARE NOT ENTERED IN ASCENDING ORDER
 OUTPUT CONTROL STRESS PERIOD    2   TIME STEP    5
 MODEL STRESS PERIOD    2   TIME STEP    6
 APPLYING THE SPECIFIED OUTPUT CONTROL TO THE CURRENT TIME STEP

 OUTPUT CONTROL FOR STRESS PERIOD    2   TIME STEP    6
    PRINT BUDGET
    SAVE BUDGET
 UBUDSV SAVING "         STORAGE" ON UNIT102 AT TIME STEP     6, STRESS PERIOD    2
 UBUDSV SAVING "   CONSTANT HEAD" ON UNIT102 AT TIME STEP     6, STRESS PERIOD    2
 UBUDSV SAVING "FLOW RIGHT FACE " ON UNIT102 AT TIME STEP     6, STRESS PERIOD    2
 UBUDSV SAVING "FLOW FRONT FACE " ON UNIT102 AT TIME STEP     6, STRESS PERIOD    2

  HEAD DEP BOUNDS   PERIOD    2   STEP     6
 BOUNDARY      1   LAYER   1   ROW    13   COL     1   RATE   -0.285291    
 BOUNDARY      2   LAYER   1   ROW    14   COL     9   RATE    0.284515    



 STREAM LISTING     PERIOD      2   STEP        6

 LAYER ROW COL. STREAM  RCH.  FLOW INTO     FLOW TO   FLOW OUT OF   OVRLND.     DIRECT     STREAM       STREAM     STREAM     STREAM   STREAMBED  STREAMBED
                SEG.NO.  NO.  STRM. RCH.    AQUIFER    STRM. RCH.    RUNOFF     PRECIP       ET          HEAD       DEPTH      WIDTH   CONDCTNC.   GRADIENT

   1    1    1     1     1    4.0000E+00  8.7855E-02   3.9121E+00  0.000E+00  0.000E+00  0.000E+00  1.09374E+03  6.973E-01  5.280E+00  2.376E-02  1.232E+00
   1    2    2     1     2    3.9121E+00  1.3511E-01   3.7770E+00  0.000E+00  0.000E+00  0.000E+00  1.08875E+03  6.904E-01  5.230E+00  3.661E-02  1.230E+00
   1    3    3     1     3    3.7770E+00  1.1429E-01   3.6628E+00  0.000E+00  0.000E+00  0.000E+00  1.08310E+03  6.825E-01  5.172E+00  3.103E-02  1.228E+00
   1    3    4     1     4    3.6628E+00  1.0446E-01   3.5583E+00  0.000E+00  0.000E+00  0.000E+00  1.07808E+03  6.755E-01  5.121E+00  2.842E-02  1.225E+00
   1    4    5     2     1    1.5583E+00  2.5094E-01   1.3074E+00  0.000E+00  0.000E+00  0.000E+00  1.07215E+03  2.172E-01  1.200E+01  7.800E-02  1.072E+00
   1    5    6     2     2    1.3074E+00  1.9178E-01   1.1156E+00  0.000E+00  0.000E+00  0.000E+00  1.06671E+03  1.964E-01  1.200E+01  6.000E-02  1.065E+00
   1    6    6     2     3    1.1156E+00  1.9063E-01   9.2494E-01  0.000E+00  0.000E+00  0.000E+00  1.06197E+03  1.772E-01  1.200E+01  6.000E-02  1.059E+00
   1    7    6     2     4    9.2494E-01  1.8939E-01   7.3554E-01  0.000E+00  0.000E+00  0.000E+00  1.05723E+03  1.566E-01  1.200E+01  6.000E-02  1.052E+00
   1    8    6     2     5    7.3554E-01  1.8805E-01   5.4750E-01  0.000E+00  0.000E+00  0.000E+00  1.05249E+03  1.341E-01  1.200E+01  6.000E-02  1.045E+00
   1    3    5     3     1    2.0000E+00  2.8252E-01   1.7175E+00  0.000E+00  0.000E+00  0.000E+00  1.07555E+03  1.909E+00  9.636E+00  7.227E-02  1.955E+00
   1    3    6     3     2    1.7175E+00  2.4905E-01   1.4684E+00  0.000E+00  0.000E+00  0.000E+00  1.07264E+03  1.727E+00  8.909E+00  6.682E-02  1.864E+00
   1    3    7     3     3    1.4684E+00  1.9718E-01   1.2712E+00  0.000E+00  0.000E+00  0.000E+00  1.06987E+03  1.555E+00  8.218E+00  5.547E-02  1.777E+00
   1    4    8     3     4    1.2712E+00  2.2567E-01   1.0456E+00  0.000E+00  0.000E+00  0.000E+00  1.06682E+03  1.364E+00  7.455E+00  6.709E-02  1.682E+00
   1    5    8     3     5    1.0456E+00  1.5790E-01   8.8768E-01  0.000E+00  0.000E+00  0.000E+00  1.06362E+03  1.164E+00  6.655E+00  4.991E-02  1.582E+00
   1    6    8     3     6    8.8768E-01  5.5980E-02   8.3170E-01  0.000E+00  0.000E+00  0.000E+00  1.06158E+03  1.036E+00  6.145E+00  1.844E-02  1.518E+00
   1    5   10     4     1    1.0000E+01  9.0919E-02   9.9091E+00  0.000E+00  0.000E+00  0.000E+00  1.07836E+03  6.368E-01  1.000E+01  2.500E-02  1.212E+00
   1    5    9     4     2    9.9091E+00  1.8158E-01   9.7275E+00  0.000E+00  0.000E+00  0.000E+00  1.07154E+03  6.315E-01  1.000E+01  5.000E-02  1.211E+00
   1    6    8     4     3    9.7275E+00  1.2689E-01   9.6006E+00  0.000E+00  0.000E+00  0.000E+00  1.06381E+03  6.256E-01  1.000E+01  3.500E-02  1.209E+00
   1    6    8     5     1    1.0432E+01  2.2686E-01   1.0205E+01  0.000E+00  0.000E+00  0.000E+00  1.05868E+03  6.790E-01  1.542E+01  6.166E-02  1.226E+00
   1    7    7     5     2    1.0205E+01  2.7894E-01   9.9265E+00  0.000E+00  0.000E+00  0.000E+00  1.05417E+03  6.732E-01  1.519E+01  7.594E-02  1.224E+00
   1    8    7     5     3    9.9265E+00  1.9221E-01   9.7343E+00  0.000E+00  0.000E+00  0.000E+00  1.04992E+03  6.676E-01  1.497E+01  5.241E-02  1.223E+00
   1    8    6     5     4    9.7343E+00  1.3577E-01   9.5985E+00  0.000E+00  0.000E+00  0.000E+00  1.04691E+03  6.637E-01  1.482E+01  3.706E-02  1.221E+00
   1    9    6     6     1    1.0146E+01  2.2237E-01   9.9237E+00  0.000E+00  0.000E+00  0.000E+00  1.04343E+03  7.061E-01  1.200E+01  6.000E-02  1.235E+00
   1   10    7     6     2    9.9237E+00  2.2180E-01   9.7019E+00  0.000E+00  0.000E+00  0.000E+00  1.03888E+03  6.967E-01  1.200E+01  6.000E-02  1.232E+00
   1   11    7     6     3    9.7019E+00  2.2123E-01   9.4806E+00  0.000E+00  0.000E+00  0.000E+00  1.03432E+03  6.872E-01  1.200E+01  6.000E-02  1.229E+00
   1   12    7     6     4    9.4806E+00  2.2066E-01   9.2600E+00  0.000E+00  0.000E+00  0.000E+00  1.02977E+03  6.777E-01  1.200E+01  6.000E-02  1.226E+00
   1   13    7     6     5    9.2600E+00 -1.0666E-01   9.3666E+00  0.000E+00  0.000E+00  0.000E+00  1.02658E+03  6.752E-01  1.200E+01  2.400E-01 -1.481E-01
   1   14    9     7     1    1.5000E+02  1.3175E+00   1.4868E+02  0.000E+00  0.000E+00  0.000E+00  1.03987E+03  2.288E+00  5.529E+01  5.593E-01  7.852E-01
   1   13    8     7     2    1.4868E+02  1.8202E+00   1.4686E+02  0.000E+00  0.000E+00  0.000E+00  1.03478E+03  2.279E+00  5.526E+01  6.148E-01  9.869E-01
   1   13    7     7     3    1.4686E+02  1.4862E+00   1.4538E+02  0.000E+00  0.000E+00  0.000E+00  1.02969E+03  2.271E+00  5.522E+01  5.585E-01  8.871E-01
   1   13    6     8     1    1.5474E+02  8.4133E-01   1.5390E+02  0.000E+00  0.000E+00  0.000E+00  1.02472E+03  2.847E+00  4.128E+01  4.207E-01  6.667E-01
   1   13    5     8     2    1.5390E+02  1.0343E-01   1.5380E+02  0.000E+00  0.000E+00  0.000E+00  1.01847E+03  2.844E+00  4.123E+01  4.202E-01  8.205E-02
   1   13    4     8     3    1.5380E+02 -2.7267E+00   1.5652E+02  0.000E+00  0.000E+00  0.000E+00  1.01223E+03  2.853E+00  4.137E+01  4.215E+00 -2.156E-01
   1   13    3     8     4    1.5652E+02 -3.7600E+00   1.6028E+02  0.000E+00  0.000E+00  0.000E+00  1.00600E+03  2.875E+00  4.169E+01  4.248E+00 -2.950E-01
   1   13    2     8     5    1.6028E+02 -2.5303E+00   1.6282E+02  0.000E+00  0.000E+00  0.000E+00  9.99771E+02  2.896E+00  4.200E+01  4.280E+00 -1.971E-01
   1   13    1     8     6    1.6282E+02 -1.8625E+00   1.6468E+02  0.000E+00  0.000E+00  0.000E+00  9.94786E+02  2.911E+00  4.221E+01  2.581E+00 -2.406E-01
   1    6    8     9     1    0.0000E+00  0.0000E+00   0.0000E+00  0.000E+00  0.000E+00  0.000E+00  1.07850E+03  0.000E+00  4.000E+00  0.000E+00  1.000E+00



 UBDSV3 SAVING "     NETRECHARGE" ON UNIT 100 AT TIME STEP     6, STRESS PERIOD   2
 UBDSV3 SAVING "    NETDISCHARGE" ON UNIT 101 AT TIME STEP     6, STRESS PERIOD   2
 UBDSV3 SAVING "           GW ET" ON UNIT  61 AT TIME STEP     6, STRESS PERIOD   2
 UBDSV3 SAVING "    UZF RECHARGE" ON UNIT  61 AT TIME STEP     6, STRESS PERIOD   2
 UBDSV3 SAVING " SURFACE LEAKAGE" ON UNIT  61 AT TIME STEP     6, STRESS PERIOD   2
 UBDSV3 SAVING "       HORT+DUNN" ON UNIT  61 AT TIME STEP     6, STRESS PERIOD   2
 UBDSV3 SAVING "  STORAGE CHANGE" ON UNIT  61 AT TIME STEP     6, STRESS PERIOD   2


UNSATURATED ZONE PACKAGE VOLUMETRIC BUDGET FOR  TIME STEP     6 STRESS PERIOD    2
  ------------------------------------------------------------------------------



     CUMULATIVE VOLUMES      L**3       RATES FOR THIS TIME STEP      L**3/T
     ------------------                 ------------------------

           IN:                                      IN:
           ---                                      ---
        INFILTRATION =      183082.4255          INFILTRATION =       0.0000E+00

          OUT:                                     OUT:
          ----                                     ----
              UZF ET =      152417.9232                UZF ET =           0.2900
        UZF RECHARGE =    15024103.5069          UZF RECHARGE =          28.0784

            IN - OUT =   -14993439.0046              IN - OUT =         -28.3684

          STORAGE:                                 STORAGE:
          --------                                 --------
      STORAGE CHANGE =   -14989479.6508        STORAGE CHANGE =         -28.3683

 PERCENT DISCREPANCY IS DIFFERENCE BETWEEN IN-OUT MINUS CHANGE IN STORAGE
 DIVIDED BY THE AVERAGE OF IN AND OUT TIMES 100

 PERCENT DISCREPANCY =          -0.01     PERCENT DISCREPANCY =          -0.00






1
  VOLUMETRIC BUDGET FOR ENTIRE MODEL AT END OF TIME STEP    6, STRESS PERIOD   2
  ------------------------------------------------------------------------------

     CUMULATIVE VOLUMES      L**3       RATES FOR THIS TIME STEP      L**3/T
     ------------------                 ------------------------

           IN:                                      IN:
           ---                                      ---
             STORAGE     =      354925.6875               STORAGE     =           0.5808
       CONSTANT HEAD     =           0.0000         CONSTANT HEAD     =           0.0000
               WELLS     =           0.0000                 WELLS     =           0.0000
     HEAD DEP BOUNDS     =      174353.1094       HEAD DEP BOUNDS     =           0.2845
      STREAM LEAKAGE     =     6336574.0000        STREAM LEAKAGE     =          10.3087
        UZF RECHARGE     =    15024103.0000          UZF RECHARGE     =          28.0784
               GW ET     =           0.0000                 GW ET     =           0.0000
     SURFACE LEAKAGE     =           0.0000       SURFACE LEAKAGE     =           0.0000
    SUPPLEMENTARY WELLS  =           0.0000      SUPPLEMENTARY WELLS  =           0.0000

                TOTAL IN =    21889956.0000                  TOTAL IN =          39.2525

          OUT:                                     OUT:
          ----                                     ----
             STORAGE     =    14981586.0000               STORAGE     =          27.9753
       CONSTANT HEAD     =           0.0000         CONSTANT HEAD     =           0.0000
               WELLS     =           0.0000                 WELLS     =           0.0000
     HEAD DEP BOUNDS     =      174081.0156       HEAD DEP BOUNDS     =           0.2853
      STREAM LEAKAGE     =     6548894.0000        STREAM LEAKAGE     =          10.9862
        UZF RECHARGE     =           0.0000          UZF RECHARGE     =           0.0000
               GW ET     =      151085.3438                 GW ET     =       3.0358E-10
     SURFACE LEAKAGE     =           0.0000       SURFACE LEAKAGE     =           0.0000
    SUPPLEMENTARY WELLS  =       31277.0352      SUPPLEMENTARY WELLS  =           0.0000

               TOTAL OUT =    21886924.0000                 TOTAL OUT =          39.2468

                IN - OUT =        3032.0000                  IN - OUT =       5.7106E-03

     PERCENT DISCREPANCY =           0.01         PERCENT DISCREPANCY =           0.01






         TIME SUMMARY AT END OF TIME STEP    6 IN STRESS PERIOD    2
                    SECONDS     MINUTES      HOURS       DAYS        YEARS
                    -----------------------------------------------------------
   TIME STEP LENGTH  87600.      1460.0      24.333      1.0139     2.77588E-03
 STRESS PERIOD TIME 5.25600E+05  8760.0      146.00      6.0833     1.66553E-02
         TOTAL TIME 6.12000E+05  10200.      170.00      7.0833     1.93931E-02
1
 
 SOLVING FOR HEAD 
                                                   Max.-Head-Change                         Max.-Flux-Residual
  Residual-Control   Outer-Iter.   Inner-Iter.     Column Row Layer    Maximum-Head-Change  Column Row Layer    Maximum-Flux-Residual          L2-NORM 
          0                 1           2             6   13     1       0.6730322041E-02       8    6    1        -0.3559280263E+00      0.1692034729E+01
          0                 2           2             2   11     1       0.2513350286E-02       2   11    1         0.6537359937E-01      0.5159146069E+00
          0                 3           2             2   11     1       0.1127391635E-02       2   11    1         0.2932665475E-01      0.2104992103E+00
          0                 4           2             2   11     1       0.5056471359E-03       2   11    1         0.1315454363E-01      0.9270933535E-01
          0                 5           2             2   11     1       0.2267622753E-03       2   11    1         0.5899830096E-02      0.4135174185E-01
          0                 6           1             2   11     1       0.1016823190E-03       2   11    1         0.2645780075E-02      0.1848036508E-01
          0                 7           1             2   11     1       0.4559033564E-04       2   11    1         0.1186368340E-02      0.8261882504E-02
          0                 8           1             2   11     1       0.2043874957E-04       2   11    1         0.5319102047E-03      0.3694012665E-02
          0                 9           1             2   11     1       0.9162025720E-05       2   11    1         0.2384578032E-03      0.1651776804E-02

    ------------------------------------------------
       NWT REQUIRED            9 OUTER ITERATIONS 
       AND A TOTAL OF         14 INNER ITERATIONS.
    ------------------------------------------------

 NO OUTPUT CONTROL FOR STRESS PERIOD    2   TIME STEP    7
 
 SOLVING FOR HEAD 
                                                   Max.-Head-Change                         Max.-Flux-Residual
  Residual-Control   Outer-Iter.   Inner-Iter.     Column Row Layer    Maximum-Head-Change  Column Row Layer    Maximum-Flux-Residual          L2-NORM 
          0                 1           2             6   13     1       0.6609510737E-02       6   13    1         0.3487254958E+00      0.1671701309E+01
          0                 2           2             2   11     1       0.2508574552E-02       2   11    1         0.6525431115E-01      0.5125598356E+00
          0                 3           2             2   11     1       0.1125148413E-02       2   11    1         0.2927043664E-01      0.2095054151E+00
          0                 4           2             2   11     1       0.5045973021E-03       2   11    1         0.1312815599E-01      0.9230206640E-01
          0                 5           2             2   11     1       0.2262725377E-03       2   11    1         0.5887488362E-02      0.4117400889E-01
          0                 6           1             2   11     1       0.1014545201E-03       2   11    1         0.2640025983E-02      0.1840210282E-01
          0                 7           1             2   11     1       0.4548465022E-04       2   11    1         0.1183693186E-02      0.8227376677E-02
          0                 8           1             2   11     1       0.2038983235E-04       2   11    1         0.5306696514E-03      0.3678775362E-02
          0                 9           1             2   11     1       0.9139431939E-05       2   11    1         0.2378838410E-03      0.1645045112E-02

    ------------------------------------------------
       NWT REQUIRED            9 OUTER ITERATIONS 
       AND A TOTAL OF         14 INNER ITERATIONS.
    ------------------------------------------------

 NO OUTPUT CONTROL FOR STRESS PERIOD    2   TIME STEP    8
 
 SOLVING FOR HEAD 
                                                   Max.-Head-Change                         Max.-Flux-Residual
  Residual-Control   Outer-Iter.   Inner-Iter.     Column Row Layer    Maximum-Head-Change  Column Row Layer    Maximum-Flux-Residual          L2-NORM 
          0                 1           2             6   13     1       0.6491644883E-02       6   13    1         0.3424842375E+00      0.1653472381E+01
          0                 2           2             2   11     1       0.2503417304E-02       2   11    1         0.6512481365E-01      0.5094173037E+00
          0                 3           2             2   11     1       0.1122739913E-02       2   11    1         0.2920979550E-01      0.2085395147E+00
          0                 4           2             2   11     1       0.5034758709E-03       2   11    1         0.1309985222E-01      0.9190286303E-01
          0                 5           2             2   11     1       0.2257517863E-03       2   11    1         0.5874316573E-02      0.4099950412E-01
          0                 6           1             2   11     1       0.1012132874E-03       2   11    1         0.2633912348E-02      0.1832521285E-01
          0                 7           1             2   11     1       0.4537314697E-04       2   11    1         0.1180862310E-02      0.8193456766E-02
          0                 8           1             2   11     1       0.2033839526E-04       2   11    1         0.5293616490E-03      0.3663807600E-02
          0                 9           1             2   11     1       0.9115747299E-05       2   11    1         0.2372806679E-03      0.1638438078E-02

    ------------------------------------------------
       NWT REQUIRED            9 OUTER ITERATIONS 
       AND A TOTAL OF         14 INNER ITERATIONS.
    ------------------------------------------------

 NO OUTPUT CONTROL FOR STRESS PERIOD    2   TIME STEP    9
 
 SOLVING FOR HEAD 
                                                   Max.-Head-Change                         Max.-Flux-Residual
  Residual-Control   Outer-Iter.   Inner-Iter.     Column Row Layer    Maximum-Head-Change  Column Row Layer    Maximum-Flux-Residual          L2-NORM 
          0                 1           2             6   13     1       0.6376563109E-02       6   13    1         0.3363892424E+00      0.1637087808E+01
          0                 2           2             2   11     1       0.2497901697E-02       2   11    1         0.6498571912E-01      0.5064647539E+00
          0                 3           2             2   11     1       0.1120176312E-02       2   11    1         0.2914500048E-01      0.2076010094E+00
          0                 4           2             2   11     1       0.5022873188E-03       2   11    1         0.1306975068E-01      0.9151186418E-01
          0                 5           2             2   11     1       0.2252019909E-03       2   11    1         0.5860366787E-02      0.4082835347E-01
          0                 6           1             2   11     1       0.1009594886E-03       2   11    1         0.2627462063E-02      0.1824976342E-01
          0                 7           1             2   11     1       0.4525620705E-04       2   11    1         0.1177885777E-02      0.8160158004E-02
          0                 8           1             2   11     1       0.2028460676E-04       2   11    1         0.5279906412E-03      0.3649105205E-02
          0                 9           1             2   11     1       0.9091045457E-05       2   11    1         0.2366502395E-03      0.1631946474E-02

    ------------------------------------------------
       NWT REQUIRED            9 OUTER ITERATIONS 
       AND A TOTAL OF         14 INNER ITERATIONS.
    ------------------------------------------------

 OUTPUT CONTROL FOR STRESS PERIOD    2   TIME STEP   10
    PRINT BUDGET
    SAVE BUDGET
 UBUDSV SAVING "         STORAGE" ON UNIT102 AT TIME STEP    10, STRESS PERIOD    2
 UBUDSV SAVING "   CONSTANT HEAD" ON UNIT102 AT TIME STEP    10, STRESS PERIOD    2
 UBUDSV SAVING "FLOW RIGHT FACE " ON UNIT102 AT TIME STEP    10, STRESS PERIOD    2
 UBUDSV SAVING "FLOW FRONT FACE " ON UNIT102 AT TIME STEP    10, STRESS PERIOD    2

  HEAD DEP BOUNDS   PERIOD    2   STEP    10
 BOUNDARY      1   LAYER   1   ROW    13   COL     1   RATE   -0.286182    
 BOUNDARY      2   LAYER   1   ROW    14   COL     9   RATE    0.284029    



 STREAM LISTING     PERIOD      2   STEP       10

 LAYER ROW COL. STREAM  RCH.  FLOW INTO     FLOW TO   FLOW OUT OF   OVRLND.     DIRECT     STREAM       STREAM     STREAM     STREAM   STREAMBED  STREAMBED
                SEG.NO.  NO.  STRM. RCH.    AQUIFER    STRM. RCH.    RUNOFF     PRECIP       ET          HEAD       DEPTH      WIDTH   CONDCTNC.   GRADIENT

   1    1    1     1     1    4.0000E+00  8.7855E-02   3.9121E+00  0.000E+00  0.000E+00  0.000E+00  1.09374E+03  6.973E-01  5.280E+00  2.376E-02  1.232E+00
   1    2    2     1     2    3.9121E+00  1.3511E-01   3.7770E+00  0.000E+00  0.000E+00  0.000E+00  1.08875E+03  6.904E-01  5.230E+00  3.661E-02  1.230E+00
   1    3    3     1     3    3.7770E+00  1.1429E-01   3.6628E+00  0.000E+00  0.000E+00  0.000E+00  1.08310E+03  6.825E-01  5.172E+00  3.103E-02  1.228E+00
   1    3    4     1     4    3.6628E+00  1.0446E-01   3.5583E+00  0.000E+00  0.000E+00  0.000E+00  1.07808E+03  6.755E-01  5.121E+00  2.842E-02  1.225E+00
   1    4    5     2     1    1.5583E+00  2.5094E-01   1.3074E+00  0.000E+00  0.000E+00  0.000E+00  1.07215E+03  2.172E-01  1.200E+01  7.800E-02  1.072E+00
   1    5    6     2     2    1.3074E+00  1.9178E-01   1.1156E+00  0.000E+00  0.000E+00  0.000E+00  1.06671E+03  1.964E-01  1.200E+01  6.000E-02  1.065E+00
   1    6    6     2     3    1.1156E+00  1.9063E-01   9.2494E-01  0.000E+00  0.000E+00  0.000E+00  1.06197E+03  1.772E-01  1.200E+01  6.000E-02  1.059E+00
   1    7    6     2     4    9.2494E-01  1.8939E-01   7.3554E-01  0.000E+00  0.000E+00  0.000E+00  1.05723E+03  1.566E-01  1.200E+01  6.000E-02  1.052E+00
   1    8    6     2     5    7.3554E-01  1.8805E-01   5.4750E-01  0.000E+00  0.000E+00  0.000E+00  1.05249E+03  1.341E-01  1.200E+01  6.000E-02  1.045E+00
   1    3    5     3     1    2.0000E+00  2.8252E-01   1.7175E+00  0.000E+00  0.000E+00  0.000E+00  1.07555E+03  1.909E+00  9.636E+00  7.227E-02  1.955E+00
   1    3    6     3     2    1.7175E+00  2.4905E-01   1.4684E+00  0.000E+00  0.000E+00  0.000E+00  1.07264E+03  1.727E+00  8.909E+00  6.682E-02  1.864E+00
   1    3    7     3     3    1.4684E+00  1.9718E-01   1.2712E+00  0.000E+00  0.000E+00  0.000E+00  1.06987E+03  1.555E+00  8.218E+00  5.547E-02  1.777E+00
   1    4    8     3     4    1.2712E+00  2.2567E-01   1.0456E+00  0.000E+00  0.000E+00  0.000E+00  1.06682E+03  1.364E+00  7.455E+00  6.709E-02  1.682E+00
   1    5    8     3     5    1.0456E+00  1.5790E-01   8.8768E-01  0.000E+00  0.000E+00  0.000E+00  1.06362E+03  1.164E+00  6.655E+00  4.991E-02  1.582E+00
   1    6    8     3     6    8.8768E-01  5.5980E-02   8.3170E-01  0.000E+00  0.000E+00  0.000E+00  1.06158E+03  1.036E+00  6.145E+00  1.844E-02  1.518E+00
   1    5   10     4     1    1.0000E+01  9.0919E-02   9.9091E+00  0.000E+00  0.000E+00  0.000E+00  1.07836E+03  6.368E-01  1.000E+01  2.500E-02  1.212E+00
   1    5    9     4     2    9.9091E+00  1.8158E-01   9.7275E+00  0.000E+00  0.000E+00  0.000E+00  1.07154E+03  6.315E-01  1.000E+01  5.000E-02  1.211E+00
   1    6    8     4     3    9.7275E+00  1.2689E-01   9.6006E+00  0.000E+00  0.000E+00  0.000E+00  1.06381E+03  6.256E-01  1.000E+01  3.500E-02  1.209E+00
   1    6    8     5     1    1.0432E+01  2.2686E-01   1.0205E+01  0.000E+00  0.000E+00  0.000E+00  1.05868E+03  6.790E-01  1.542E+01  6.166E-02  1.226E+00
   1    7    7     5     2    1.0205E+01  2.7894E-01   9.9265E+00  0.000E+00  0.000E+00  0.000E+00  1.05417E+03  6.732E-01  1.519E+01  7.594E-02  1.224E+00
   1    8    7     5     3    9.9265E+00  1.9221E-01   9.7343E+00  0.000E+00  0.000E+00  0.000E+00  1.04992E+03  6.676E-01  1.497E+01  5.241E-02  1.223E+00
   1    8    6     5     4    9.7343E+00  1.3577E-01   9.5985E+00  0.000E+00  0.000E+00  0.000E+00  1.04691E+03  6.637E-01  1.482E+01  3.706E-02  1.221E+00
   1    9    6     6     1    1.0146E+01  2.2237E-01   9.9237E+00  0.000E+00  0.000E+00  0.000E+00  1.04343E+03  7.061E-01  1.200E+01  6.000E-02  1.235E+00
   1   10    7     6     2    9.9237E+00  2.2180E-01   9.7019E+00  0.000E+00  0.000E+00  0.000E+00  1.03888E+03  6.967E-01  1.200E+01  6.000E-02  1.232E+00
   1   11    7     6     3    9.7019E+00  2.2123E-01   9.4806E+00  0.000E+00  0.000E+00  0.000E+00  1.03432E+03  6.872E-01  1.200E+01  6.000E-02  1.229E+00
   1   12    7     6     4    9.4806E+00  2.2066E-01   9.2600E+00  0.000E+00  0.000E+00  0.000E+00  1.02977E+03  6.777E-01  1.200E+01  6.000E-02  1.226E+00
   1   13    7     6     5    9.2600E+00 -1.1356E-01   9.3735E+00  0.000E+00  0.000E+00  0.000E+00  1.02658E+03  6.754E-01  1.200E+01  2.400E-01 -1.577E-01
   1   14    9     7     1    1.5000E+02  1.3104E+00   1.4869E+02  0.000E+00  0.000E+00  0.000E+00  1.03987E+03  2.288E+00  5.530E+01  5.593E-01  7.810E-01
   1   13    8     7     2    1.4869E+02  1.8111E+00   1.4688E+02  0.000E+00  0.000E+00  0.000E+00  1.03478E+03  2.279E+00  5.526E+01  6.148E-01  9.820E-01
   1   13    7     7     3    1.4688E+02  1.4701E+00   1.4541E+02  0.000E+00  0.000E+00  0.000E+00  1.02969E+03  2.271E+00  5.522E+01  5.585E-01  8.775E-01
   1   13    6     8     1    1.5478E+02  8.2824E-01   1.5395E+02  0.000E+00  0.000E+00  0.000E+00  1.02472E+03  2.847E+00  4.129E+01  4.207E-01  6.562E-01
   1   13    5     8     2    1.5395E+02  9.0942E-02   1.5386E+02  0.000E+00  0.000E+00  0.000E+00  1.01847E+03  2.844E+00  4.124E+01  4.203E-01  7.213E-02
   1   13    4     8     3    1.5386E+02 -2.7986E+00   1.5666E+02  0.000E+00  0.000E+00  0.000E+00  1.01223E+03  2.853E+00  4.138E+01  4.216E+00 -2.213E-01
   1   13    3     8     4    1.5666E+02 -3.8294E+00   1.6049E+02  0.000E+00  0.000E+00  0.000E+00  1.00600E+03  2.876E+00  4.170E+01  4.250E+00 -3.004E-01
   1   13    2     8     5    1.6049E+02 -2.6036E+00   1.6309E+02  0.000E+00  0.000E+00  0.000E+00  9.99773E+02  2.898E+00  4.202E+01  4.282E+00 -2.027E-01
   1   13    1     8     6    1.6309E+02 -1.9190E+00   1.6501E+02  0.000E+00  0.000E+00  0.000E+00  9.94788E+02  2.913E+00  4.224E+01  2.583E+00 -2.477E-01
   1    6    8     9     1    0.0000E+00  0.0000E+00   0.0000E+00  0.000E+00  0.000E+00  0.000E+00  1.07850E+03  0.000E+00  4.000E+00  0.000E+00  1.000E+00



 UBDSV3 SAVING "     NETRECHARGE" ON UNIT 100 AT TIME STEP    10, STRESS PERIOD   2
 UBDSV3 SAVING "    NETDISCHARGE" ON UNIT 101 AT TIME STEP    10, STRESS PERIOD   2
 UBDSV3 SAVING "           GW ET" ON UNIT  61 AT TIME STEP    10, STRESS PERIOD   2
 UBDSV3 SAVING "    UZF RECHARGE" ON UNIT  61 AT TIME STEP    10, STRESS PERIOD   2
 UBDSV3 SAVING " SURFACE LEAKAGE" ON UNIT  61 AT TIME STEP    10, STRESS PERIOD   2
 UBDSV3 SAVING "       HORT+DUNN" ON UNIT  61 AT TIME STEP    10, STRESS PERIOD   2
 UBDSV3 SAVING "  STORAGE CHANGE" ON UNIT  61 AT TIME STEP    10, STRESS PERIOD   2


UNSATURATED ZONE PACKAGE VOLUMETRIC BUDGET FOR  TIME STEP    10 STRESS PERIOD    2
  ------------------------------------------------------------------------------



     CUMULATIVE VOLUMES      L**3       RATES FOR THIS TIME STEP      L**3/T
     ------------------                 ------------------------

           IN:                                      IN:
           ---                                      ---
        INFILTRATION =      183082.4255          INFILTRATION =       0.0000E+00

          OUT:                                     OUT:
          ----                                     ----
              UZF ET =      254033.9232                UZF ET =           0.2900
        UZF RECHARGE =    24815107.5477          UZF RECHARGE =          27.8650

            IN - OUT =   -24886059.0454              IN - OUT =         -28.1550

          STORAGE:                                 STORAGE:
          --------                                 --------
      STORAGE CHANGE =   -24882059.0494        STORAGE CHANGE =         -28.1548

 PERCENT DISCREPANCY IS DIFFERENCE BETWEEN IN-OUT MINUS CHANGE IN STORAGE
 DIVIDED BY THE AVERAGE OF IN AND OUT TIMES 100

 PERCENT DISCREPANCY =          -0.00     PERCENT DISCREPANCY =          -0.00






1
  VOLUMETRIC BUDGET FOR ENTIRE MODEL AT END OF TIME STEP   10, STRESS PERIOD   2
  ------------------------------------------------------------------------------

     CUMULATIVE VOLUMES      L**3       RATES FOR THIS TIME STEP      L**3/T
     ------------------                 ------------------------

           IN:                                      IN:
           ---                                      ---
             STORAGE     =      530252.5000               STORAGE     =           0.4550
       CONSTANT HEAD     =           0.0000         CONSTANT HEAD     =           0.0000
               WELLS     =           0.0000                 WELLS     =           0.0000
     HEAD DEP BOUNDS     =      273940.2812       HEAD DEP BOUNDS     =           0.2840
      STREAM LEAKAGE     =     9935981.0000        STREAM LEAKAGE     =          10.2509
        UZF RECHARGE     =    24815108.0000          UZF RECHARGE     =          27.8650
               GW ET     =           0.0000                 GW ET     =           0.0000
     SURFACE LEAKAGE     =           0.0000       SURFACE LEAKAGE     =           0.0000
    SUPPLEMENTARY WELLS  =           0.0000      SUPPLEMENTARY WELLS  =           0.0000

                TOTAL IN =    35555280.0000                  TOTAL IN =          38.8549

          OUT:                                     OUT:
          ----                                     ----
             STORAGE     =    24631962.0000               STORAGE     =          27.2989
       CONSTANT HEAD     =           0.0000         CONSTANT HEAD     =           0.0000
               WELLS     =           0.0000                 WELLS     =           0.0000
     HEAD DEP BOUNDS     =      274247.8125       HEAD DEP BOUNDS     =           0.2862
      STREAM LEAKAGE     =    10461696.0000        STREAM LEAKAGE     =          11.2642
        UZF RECHARGE     =           0.0000          UZF RECHARGE     =           0.0000
               GW ET     =      151085.3438                 GW ET     =       3.0358E-10
     SURFACE LEAKAGE     =           0.0000       SURFACE LEAKAGE     =           0.0000
    SUPPLEMENTARY WELLS  =       31277.0352      SUPPLEMENTARY WELLS  =           0.0000

               TOTAL OUT =    35550264.0000                 TOTAL OUT =          38.8493

                IN - OUT =        5016.0000                  IN - OUT =       5.6076E-03

     PERCENT DISCREPANCY =           0.01         PERCENT DISCREPANCY =           0.01






         TIME SUMMARY AT END OF TIME STEP   10 IN STRESS PERIOD    2
                    SECONDS     MINUTES      HOURS       DAYS        YEARS
                    -----------------------------------------------------------
   TIME STEP LENGTH  87600.      1460.0      24.333      1.0139     2.77588E-03
 STRESS PERIOD TIME 8.76000E+05  14600.      243.33      10.139     2.77588E-02
         TOTAL TIME 9.62400E+05  16040.      267.33      11.139     3.04966E-02
1
 
 SOLVING FOR HEAD 
                                                   Max.-Head-Change                         Max.-Flux-Residual
  Residual-Control   Outer-Iter.   Inner-Iter.     Column Row Layer    Maximum-Head-Change  Column Row Layer    Maximum-Flux-Residual          L2-NORM 
          0                 1           2             6   13     1       0.6264320227E-02       6   13    1         0.3304438502E+00      0.1622153320E+01
          0                 2           2             2   11     1       0.2492148027E-02       2   11    1         0.6484018535E-01      0.5036372027E+00
          0                 3           2             2   11     1       0.1117510977E-02       2   11    1         0.2907745237E-01      0.2066830301E+00
          0                 4           2             2   11     1       0.5010553166E-03       2   11    1         0.1303847272E-01      0.9112869683E-01
          0                 5           2             2   11     1       0.2246336511E-03       2   11    1         0.5845914644E-02      0.4066062654E-01
          0                 6           1             2   11     1       0.1006977813E-03       2   11    1         0.2620797410E-02      0.1817581505E-01
          0                 7           1             2   11     1       0.4513589763E-04       2   11    1         0.1174817838E-02      0.8127510711E-02
          0                 8           1             2   11     1       0.2022938386E-04       2   11    1         0.5265806888E-03      0.3634687140E-02
          0                 9           1             2   11     1       0.9065733094E-05       2   11    1         0.2360032340E-03      0.1625577352E-02

    ------------------------------------------------
       NWT REQUIRED            9 OUTER ITERATIONS 
       AND A TOTAL OF         14 INNER ITERATIONS.
    ------------------------------------------------

 NO OUTPUT CONTROL FOR STRESS PERIOD    2   TIME STEP   11
 
 SOLVING FOR HEAD 
                                                   Max.-Head-Change                         Max.-Flux-Residual
  Residual-Control   Outer-Iter.   Inner-Iter.     Column Row Layer    Maximum-Head-Change  Column Row Layer    Maximum-Flux-Residual          L2-NORM 
          0                 1           2             6   13     1       0.6154824083E-02       6   13    1         0.3246446822E+00      0.1606524795E+01
          0                 2           2             2   11     1       0.2486075519E-02       2   11    1         0.6468612864E-01      0.5007590641E+00
          0                 3           2             2   11     1       0.1114707307E-02       2   11    1         0.2900620695E-01      0.2057745263E+00
          0                 4           2             2   11     1       0.4997632890E-03       2   11    1         0.1300559055E-01      0.9075125674E-01
          0                 5           2             2   11     1       0.2240392648E-03       2   11    1         0.5830766392E-02      0.4049536519E-01
          0                 6           1             2   11     1       0.1004247718E-03       2   11    1         0.2613830694E-02      0.1810295824E-01
          0                 7           1             2   11     1       0.4501068367E-04       2   11    1         0.1171618826E-02      0.8095318287E-02
          0                 8           1             2   11     1       0.2017203265E-04       2   11    1         0.5251138593E-03      0.3620463452E-02
          0                 9           1             2   11     1       0.9039497946E-05       2   11    1         0.2353315497E-03      0.1619291477E-02

    ------------------------------------------------
       NWT REQUIRED            9 OUTER ITERATIONS 
       AND A TOTAL OF         14 INNER ITERATIONS.
    ------------------------------------------------

 NO OUTPUT CONTROL FOR STRESS PERIOD    2   TIME STEP   12
 
 SOLVING FOR HEAD 
                                                   Max.-Head-Change                         Max.-Flux-Residual
  Residual-Control   Outer-Iter.   Inner-Iter.     Column Row Layer    Maximum-Head-Change  Column Row Layer    Maximum-Flux-Residual          L2-NORM 
          0                 1           2             6   13     1       0.6047962761E-02       6   13    1         0.3189863767E+00      0.1592282462E+01
          0                 2           2             2   11     1       0.2479704485E-02       2   11    1         0.6452406675E-01      0.4980711221E+00
          0                 3           2             2   11     1       0.1111774646E-02       2   11    1         0.2893150224E-01      0.2048907270E+00
          0                 4           2             2   11     1       0.4984155358E-03       2   11    1         0.1297121369E-01      0.9038024392E-01
          0                 5           2             2   11     1       0.2234208099E-03       2   11    1         0.5814972445E-02      0.4033265707E-01
          0                 6           1             2   11     1       0.1001413686E-03       2   11    1         0.2606585100E-02      0.1803163560E-01
          0                 7           1             2   11     1       0.4488098221E-04       2   11    1         0.1168299387E-02      0.8063967982E-02
          0                 8           1             2   11     1       0.2011274445E-04       2   11    1         0.5235950462E-03      0.3606672074E-02
          0                 9           1             2   11     1       0.9012426677E-05       2   11    1         0.2346374321E-03      0.1613222226E-02

    ------------------------------------------------
       NWT REQUIRED            9 OUTER ITERATIONS 
       AND A TOTAL OF         14 INNER ITERATIONS.
    ------------------------------------------------

 NO OUTPUT CONTROL FOR STRESS PERIOD    2   TIME STEP   13
 
 SOLVING FOR HEAD 
                                                   Max.-Head-Change                         Max.-Flux-Residual
  Residual-Control   Outer-Iter.   Inner-Iter.     Column Row Layer    Maximum-Head-Change  Column Row Layer    Maximum-Flux-Residual          L2-NORM 
          0                 1           2             6   13     1       0.5943660168E-02       6   13    1         0.3134631861E+00      0.1580906741E+01
          0                 2           2             2   11     1       0.2473101208E-02       2   11    1         0.6435576539E-01      0.4956224967E+00
          0                 3           2             2   11     1       0.1108741881E-02       2   11    1         0.2885410752E-01      0.2040383453E+00
          0                 4           2             2   11     1       0.4970246458E-03       2   11    1         0.1293567740E-01      0.9002006825E-01
          0                 5           2             2   11     1       0.2227837708E-03       2   11    1         0.5798678899E-02      0.4017515367E-01
          0                 6           1             2   11     1       0.9984996212E-04       2   11    1         0.2599124292E-02      0.1796187203E-01
          0                 7           1             2   11     1       0.4474783559E-04       2   11    1         0.1164887272E-02      0.8033130965E-02
          0                 8           1             2   11     1       0.2005197397E-04       2   11    1         0.5220363278E-03      0.3593038349E-02
          0                 9           1             2   11     1       0.8984717375E-05       2   11    1         0.2339261341E-03      0.1607192800E-02

    ------------------------------------------------
       NWT REQUIRED            9 OUTER ITERATIONS 
       AND A TOTAL OF         14 INNER ITERATIONS.
    ------------------------------------------------

 NO OUTPUT CONTROL FOR STRESS PERIOD    2   TIME STEP   14
 
 SOLVING FOR HEAD 
                                                   Max.-Head-Change                         Max.-Flux-Residual
  Residual-Control   Outer-Iter.   Inner-Iter.     Column Row Layer    Maximum-Head-Change  Column Row Layer    Maximum-Flux-Residual          L2-NORM 
          0                 1           2             6   13     1       0.5841844202E-02       6   13    1         0.3080724400E+00      0.1569851387E+01
          0                 2           2             2   11     1       0.2466280715E-02       2   11    1         0.6418163302E-01      0.4932932080E+00
          0                 3           2             2   11     1       0.1105615388E-02       2   11    1         0.2877419634E-01      0.2032063066E+00
          0                 4           2             2   11     1       0.4955933235E-03       2   11    1         0.1289905532E-01      0.8966415545E-01
          0                 5           2             2   11     1       0.2221292952E-03       2   11    1         0.5781916982E-02      0.4001848813E-01
          0                 6           1             2   11     1       0.9955103753E-04       2   11    1         0.2591461500E-02      0.1789265004E-01
          0                 7           1             2   11     1       0.4461144817E-04       2   11    1         0.1161388077E-02      0.8002521075E-02
          0                 8           1             2   11     1       0.1998980662E-04       2   11    1         0.5204400838E-03      0.3579499658E-02
          0                 9           1             2   11     1       0.8956406806E-05       2   11    1         0.2331986693E-03      0.1601203403E-02

    ------------------------------------------------
       NWT REQUIRED            9 OUTER ITERATIONS 
       AND A TOTAL OF         14 INNER ITERATIONS.
    ------------------------------------------------

 OUTPUT CONTROL FOR STRESS PERIOD    2   TIME STEP   15
    PRINT BUDGET
    PRINT HEAD FOR ALL LAYERS
    SAVE HEAD FOR ALL LAYERS
    SAVE BUDGET
 UBUDSV SAVING "         STORAGE" ON UNIT102 AT TIME STEP    15, STRESS PERIOD    2
 UBUDSV SAVING "   CONSTANT HEAD" ON UNIT102 AT TIME STEP    15, STRESS PERIOD    2
 UBUDSV SAVING "FLOW RIGHT FACE " ON UNIT102 AT TIME STEP    15, STRESS PERIOD    2
 UBUDSV SAVING "FLOW FRONT FACE " ON UNIT102 AT TIME STEP    15, STRESS PERIOD    2

  HEAD DEP BOUNDS   PERIOD    2   STEP    15
 BOUNDARY      1   LAYER   1   ROW    13   COL     1   RATE   -0.287044    
 BOUNDARY      2   LAYER   1   ROW    14   COL     9   RATE    0.283442    



 STREAM LISTING     PERIOD      2   STEP       15

 LAYER ROW COL. STREAM  RCH.  FLOW INTO     FLOW TO   FLOW OUT OF   OVRLND.     DIRECT     STREAM       STREAM     STREAM     STREAM   STREAMBED  STREAMBED
                SEG.NO.  NO.  STRM. RCH.    AQUIFER    STRM. RCH.    RUNOFF     PRECIP       ET          HEAD       DEPTH      WIDTH   CONDCTNC.   GRADIENT

   1    1    1     1     1    4.0000E+00  8.7855E-02   3.9121E+00  0.000E+00  0.000E+00  0.000E+00  1.09374E+03  6.973E-01  5.280E+00  2.376E-02  1.232E+00
   1    2    2     1     2    3.9121E+00  1.3511E-01   3.7770E+00  0.000E+00  0.000E+00  0.000E+00  1.08875E+03  6.904E-01  5.230E+00  3.661E-02  1.230E+00
   1    3    3     1     3    3.7770E+00  1.1429E-01   3.6628E+00  0.000E+00  0.000E+00  0.000E+00  1.08310E+03  6.825E-01  5.172E+00  3.103E-02  1.228E+00
   1    3    4     1     4    3.6628E+00  1.0446E-01   3.5583E+00  0.000E+00  0.000E+00  0.000E+00  1.07808E+03  6.755E-01  5.121E+00  2.842E-02  1.225E+00
   1    4    5     2     1    1.5583E+00  2.5094E-01   1.3074E+00  0.000E+00  0.000E+00  0.000E+00  1.07215E+03  2.172E-01  1.200E+01  7.800E-02  1.072E+00
   1    5    6     2     2    1.3074E+00  1.9178E-01   1.1156E+00  0.000E+00  0.000E+00  0.000E+00  1.06671E+03  1.964E-01  1.200E+01  6.000E-02  1.065E+00
   1    6    6     2     3    1.1156E+00  1.9063E-01   9.2494E-01  0.000E+00  0.000E+00  0.000E+00  1.06197E+03  1.772E-01  1.200E+01  6.000E-02  1.059E+00
   1    7    6     2     4    9.2494E-01  1.8939E-01   7.3554E-01  0.000E+00  0.000E+00  0.000E+00  1.05723E+03  1.566E-01  1.200E+01  6.000E-02  1.052E+00
   1    8    6     2     5    7.3554E-01  1.8805E-01   5.4750E-01  0.000E+00  0.000E+00  0.000E+00  1.05249E+03  1.341E-01  1.200E+01  6.000E-02  1.045E+00
   1    3    5     3     1    2.0000E+00  2.8252E-01   1.7175E+00  0.000E+00  0.000E+00  0.000E+00  1.07555E+03  1.909E+00  9.636E+00  7.227E-02  1.955E+00
   1    3    6     3     2    1.7175E+00  2.4905E-01   1.4684E+00  0.000E+00  0.000E+00  0.000E+00  1.07264E+03  1.727E+00  8.909E+00  6.682E-02  1.864E+00
   1    3    7     3     3    1.4684E+00  1.9718E-01   1.2712E+00  0.000E+00  0.000E+00  0.000E+00  1.06987E+03  1.555E+00  8.218E+00  5.547E-02  1.777E+00
   1    4    8     3     4    1.2712E+00  2.2567E-01   1.0456E+00  0.000E+00  0.000E+00  0.000E+00  1.06682E+03  1.364E+00  7.455E+00  6.709E-02  1.682E+00
   1    5    8     3     5    1.0456E+00  1.5790E-01   8.8768E-01  0.000E+00  0.000E+00  0.000E+00  1.06362E+03  1.164E+00  6.655E+00  4.991E-02  1.582E+00
   1    6    8     3     6    8.8768E-01  5.5980E-02   8.3170E-01  0.000E+00  0.000E+00  0.000E+00  1.06158E+03  1.036E+00  6.145E+00  1.844E-02  1.518E+00
   1    5   10     4     1    1.0000E+01  9.0919E-02   9.9091E+00  0.000E+00  0.000E+00  0.000E+00  1.07836E+03  6.368E-01  1.000E+01  2.500E-02  1.212E+00
   1    5    9     4     2    9.9091E+00  1.8158E-01   9.7275E+00  0.000E+00  0.000E+00  0.000E+00  1.07154E+03  6.315E-01  1.000E+01  5.000E-02  1.211E+00
   1    6    8     4     3    9.7275E+00  1.2689E-01   9.6006E+00  0.000E+00  0.000E+00  0.000E+00  1.06381E+03  6.256E-01  1.000E+01  3.500E-02  1.209E+00
   1    6    8     5     1    1.0432E+01  2.2686E-01   1.0205E+01  0.000E+00  0.000E+00  0.000E+00  1.05868E+03  6.790E-01  1.542E+01  6.166E-02  1.226E+00
   1    7    7     5     2    1.0205E+01  2.7894E-01   9.9265E+00  0.000E+00  0.000E+00  0.000E+00  1.05417E+03  6.732E-01  1.519E+01  7.594E-02  1.224E+00
   1    8    7     5     3    9.9265E+00  1.9221E-01   9.7343E+00  0.000E+00  0.000E+00  0.000E+00  1.04992E+03  6.676E-01  1.497E+01  5.241E-02  1.223E+00
   1    8    6     5     4    9.7343E+00  1.3577E-01   9.5985E+00  0.000E+00  0.000E+00  0.000E+00  1.04691E+03  6.637E-01  1.482E+01  3.706E-02  1.221E+00
   1    9    6     6     1    1.0146E+01  2.2237E-01   9.9237E+00  0.000E+00  0.000E+00  0.000E+00  1.04343E+03  7.061E-01  1.200E+01  6.000E-02  1.235E+00
   1   10    7     6     2    9.9237E+00  2.2180E-01   9.7019E+00  0.000E+00  0.000E+00  0.000E+00  1.03888E+03  6.967E-01  1.200E+01  6.000E-02  1.232E+00
   1   11    7     6     3    9.7019E+00  2.2123E-01   9.4806E+00  0.000E+00  0.000E+00  0.000E+00  1.03432E+03  6.872E-01  1.200E+01  6.000E-02  1.229E+00
   1   12    7     6     4    9.4806E+00  2.2066E-01   9.2600E+00  0.000E+00  0.000E+00  0.000E+00  1.02977E+03  6.777E-01  1.200E+01  6.000E-02  1.226E+00
   1   13    7     6     5    9.2600E+00 -1.2124E-01   9.3812E+00  0.000E+00  0.000E+00  0.000E+00  1.02658E+03  6.755E-01  1.200E+01  2.400E-01 -1.684E-01
   1   14    9     7     1    1.5000E+02  1.3018E+00   1.4870E+02  0.000E+00  0.000E+00  0.000E+00  1.03987E+03  2.288E+00  5.530E+01  5.593E-01  7.758E-01
   1   13    8     7     2    1.4870E+02  1.7997E+00   1.4690E+02  0.000E+00  0.000E+00  0.000E+00  1.03478E+03  2.280E+00  5.526E+01  6.148E-01  9.758E-01
   1   13    7     7     3    1.4690E+02  1.4523E+00   1.4545E+02  0.000E+00  0.000E+00  0.000E+00  1.02969E+03  2.271E+00  5.522E+01  5.585E-01  8.668E-01
   1   13    6     8     1    1.5483E+02  8.1313E-01   1.5401E+02  0.000E+00  0.000E+00  0.000E+00  1.02472E+03  2.848E+00  4.129E+01  4.208E-01  6.442E-01
   1   13    5     8     2    1.5401E+02  7.6987E-02   1.5394E+02  0.000E+00  0.000E+00  0.000E+00  1.01847E+03  2.845E+00  4.125E+01  4.203E-01  6.105E-02
   1   13    4     8     3    1.5394E+02 -2.8530E+00   1.5679E+02  0.000E+00  0.000E+00  0.000E+00  1.01223E+03  2.854E+00  4.139E+01  4.217E+00 -2.255E-01
   1   13    3     8     4    1.5679E+02 -3.8780E+00   1.6067E+02  0.000E+00  0.000E+00  0.000E+00  1.00600E+03  2.877E+00  4.172E+01  4.251E+00 -3.041E-01
   1   13    2     8     5    1.6067E+02 -2.6672E+00   1.6334E+02  0.000E+00  0.000E+00  0.000E+00  9.99774E+02  2.899E+00  4.204E+01  4.284E+00 -2.075E-01
   1   13    1     8     6    1.6334E+02 -1.9742E+00   1.6531E+02  0.000E+00  0.000E+00  0.000E+00  9.94790E+02  2.915E+00  4.227E+01  2.584E+00 -2.547E-01
   1    6    8     9     1    0.0000E+00  0.0000E+00   0.0000E+00  0.000E+00  0.000E+00  0.000E+00  1.07850E+03  0.000E+00  4.000E+00  0.000E+00  1.000E+00



 UBDSV3 SAVING "     NETRECHARGE" ON UNIT 100 AT TIME STEP    15, STRESS PERIOD   2
 UBDSV3 SAVING "    NETDISCHARGE" ON UNIT 101 AT TIME STEP    15, STRESS PERIOD   2
 UBDSV3 SAVING "           GW ET" ON UNIT  61 AT TIME STEP    15, STRESS PERIOD   2
 UBDSV3 SAVING "    UZF RECHARGE" ON UNIT  61 AT TIME STEP    15, STRESS PERIOD   2
 UBDSV3 SAVING " SURFACE LEAKAGE" ON UNIT  61 AT TIME STEP    15, STRESS PERIOD   2
 UBDSV3 SAVING "       HORT+DUNN" ON UNIT  61 AT TIME STEP    15, STRESS PERIOD   2
 UBDSV3 SAVING "  STORAGE CHANGE" ON UNIT  61 AT TIME STEP    15, STRESS PERIOD   2


UNSATURATED ZONE PACKAGE VOLUMETRIC BUDGET FOR  TIME STEP    15 STRESS PERIOD    2
  ------------------------------------------------------------------------------



     CUMULATIVE VOLUMES      L**3       RATES FOR THIS TIME STEP      L**3/T
     ------------------                 ------------------------

           IN:                                      IN:
           ---                                      ---
        INFILTRATION =      183082.4255          INFILTRATION =       0.0000E+00

          OUT:                                     OUT:
          ----                                     ----
              UZF ET =      381053.9232                UZF ET =           0.2900
        UZF RECHARGE =    36928234.5418          UZF RECHARGE =          27.5072

            IN - OUT =   -37126206.0395              IN - OUT =         -27.7972

          STORAGE:                                 STORAGE:
          --------                                 --------
      STORAGE CHANGE =   -37122162.0877        STORAGE CHANGE =         -27.7972

 PERCENT DISCREPANCY IS DIFFERENCE BETWEEN IN-OUT MINUS CHANGE IN STORAGE
 DIVIDED BY THE AVERAGE OF IN AND OUT TIMES 100

 PERCENT DISCREPANCY =          -0.00     PERCENT DISCREPANCY =          -0.00






1
              HEAD IN LAYER   1 AT END OF TIME STEP    15 IN STRESS PERIOD    2
  -----------------------------------------------------------------------------

           1       2       3       4       5       6       7       8       9      10
 ...................................................................................
   1  1033.96 1032.94 6999.00 6999.00 6999.00 6999.00 6999.00 6999.00 6999.00 6999.00
   2  1033.11 1031.82 1031.22 6999.00 6999.00 1032.53 1032.72 1032.73 6999.00 6999.00
   3  6999.00 1030.98 1030.61 1030.38 1031.01 1031.73 1032.32 1032.35 6999.00 6999.00
   4  1030.19 1030.20 1030.05 1029.81 1029.91 1030.04 1030.73 1031.95 1031.74 6999.00
   5  1029.71 1029.37 1029.24 1029.11 1029.26 1029.58 1029.94 1030.62 1031.26 1031.78
   6  1029.09 1028.55 1028.39 1028.32 1028.50 1028.97 1029.50 1030.30 1030.82 1031.70
   7  1028.54 1027.50 1027.35 1027.34 1027.56 1028.08 1028.70 1029.44 1030.07 6999.00
   8  6999.00 1025.98 1026.02 1026.12 1026.38 1026.94 1027.48 1028.55 1029.07 6999.00
   9  6999.00 1023.74 1024.07 1024.47 1024.88 1025.57 1026.13 1027.05 1028.16 6999.00
  10  6999.00 1020.67 1021.44 1022.43 1023.23 1024.27 1025.19 1026.35 1027.96 1028.59
  11  6999.00 1015.89 1017.29 1019.82 1021.48 1023.23 1024.77 1026.62 1028.80 6999.00
  12  1002.07 1008.18 1012.27 1016.29 1019.59 1022.59 1025.08 1028.53 1031.52 6999.00
  13   995.55 1000.40 1006.91 1012.91 1018.29 1022.79 1027.09 1031.85 1034.71 6999.00
  14  6999.00 1005.89 1008.98 1013.63 1018.38 1022.77 1027.69 1033.20 1037.54 6999.00
  15  6999.00 6999.00 1012.61 1015.33 1018.79 1021.81 6999.00 6999.00 6999.00 6999.00

 HEAD WILL BE SAVED ON UNIT   62 AT END OF TIME STEP   15, STRESS PERIOD    2
1
  VOLUMETRIC BUDGET FOR ENTIRE MODEL AT END OF TIME STEP   15, STRESS PERIOD   2
  ------------------------------------------------------------------------------

     CUMULATIVE VOLUMES      L**3       RATES FOR THIS TIME STEP      L**3/T
     ------------------                 ------------------------

           IN:                                      IN:
           ---                                      ---
             STORAGE     =      694931.5625               STORAGE     =           0.3271
       CONSTANT HEAD     =           0.0000         CONSTANT HEAD     =           0.0000
               WELLS     =           0.0000                 WELLS     =           0.0000
     HEAD DEP BOUNDS     =      398189.8750       HEAD DEP BOUNDS     =           0.2834
      STREAM LEAKAGE     =    14408061.0000        STREAM LEAKAGE     =          10.1838
        UZF RECHARGE     =    36928236.0000          UZF RECHARGE     =          27.5073
               GW ET     =           0.0000                 GW ET     =           0.0000
     SURFACE LEAKAGE     =           0.0000       SURFACE LEAKAGE     =           0.0000
    SUPPLEMENTARY WELLS  =           0.0000      SUPPLEMENTARY WELLS  =           0.0000

                TOTAL IN =    52429416.0000                  TOTAL IN =          38.3017

          OUT:                                     OUT:
          ----                                     ----
             STORAGE     =    36379492.0000               STORAGE     =          26.5156
       CONSTANT HEAD     =           0.0000         CONSTANT HEAD     =           0.0000
               WELLS     =           0.0000                 WELLS     =           0.0000
     HEAD DEP BOUNDS     =      399830.9375       HEAD DEP BOUNDS     =           0.2870
      STREAM LEAKAGE     =    15460290.0000        STREAM LEAKAGE     =          11.4936
        UZF RECHARGE     =           0.0000          UZF RECHARGE     =           0.0000
               GW ET     =      151085.3438                 GW ET     =       3.0357E-10
     SURFACE LEAKAGE     =           0.0000       SURFACE LEAKAGE     =           0.0000
    SUPPLEMENTARY WELLS  =       31277.0352      SUPPLEMENTARY WELLS  =           0.0000

               TOTAL OUT =    52421976.0000                 TOTAL OUT =          38.2962

                IN - OUT =        7440.0000                  IN - OUT =       5.5008E-03

     PERCENT DISCREPANCY =           0.01         PERCENT DISCREPANCY =           0.01






         TIME SUMMARY AT END OF TIME STEP   15 IN STRESS PERIOD    2
                    SECONDS     MINUTES      HOURS       DAYS        YEARS
                    -----------------------------------------------------------
   TIME STEP LENGTH  87600.      1460.0      24.333      1.0139     2.77588E-03
 STRESS PERIOD TIME 1.31400E+06  21900.      365.00      15.208     4.16381E-02
         TOTAL TIME 1.40040E+06  23340.      389.00      16.208     4.43760E-02
1
 
 SOLVING FOR HEAD 
                                                   Max.-Head-Change                         Max.-Flux-Residual
  Residual-Control   Outer-Iter.   Inner-Iter.     Column Row Layer    Maximum-Head-Change  Column Row Layer    Maximum-Flux-Residual          L2-NORM 
          0                 1           2             6   13     1       0.5742364697E-02       6   13    1         0.3028037917E+00      0.1561158950E+01
          0                 2           2             2   11     1       0.2459209881E-02       2   11    1         0.6400078864E-01      0.4911628169E+00
          0                 3           2             2   11     1       0.1102380729E-02       2   11    1         0.2869138418E-01      0.2023980705E+00
          0                 4           2             2   11     1       0.4941152793E-03       2   11    1         0.1286117987E-01      0.8931488796E-01
          0                 5           2             2   11     1       0.2214546443E-03       2   11    1         0.5764613720E-02      0.3986452028E-01
          0                 6           1             2   11     1       0.9924340370E-04       2   11    1         0.2583564959E-02      0.1782458645E-01
          0                 7           1             2   11     1       0.4447130157E-04       2   11    1         0.1157787974E-02      0.7972416185E-02
          0                 8           1             2   11     1       0.1992601755E-04       2   11    1         0.5188002827E-03      0.3566185029E-02
          0                 9           1             2   11     1       0.8927396676E-05       2   11    1         0.2324524186E-03      0.1595311292E-02

    ------------------------------------------------
       NWT REQUIRED            9 OUTER ITERATIONS 
       AND A TOTAL OF         14 INNER ITERATIONS.
    ------------------------------------------------

 NO OUTPUT CONTROL FOR STRESS PERIOD    2   TIME STEP   16
 
 SOLVING FOR HEAD 
                                                   Max.-Head-Change                         Max.-Flux-Residual
  Residual-Control   Outer-Iter.   Inner-Iter.     Column Row Layer    Maximum-Head-Change  Column Row Layer    Maximum-Flux-Residual          L2-NORM 
          0                 1           2             6   13     1       0.5645395551E-02       6   13    1         0.2976679568E+00      0.1551908341E+01
          0                 2           2             2   11     1       0.2451953181E-02       2   11    1         0.6381493526E-01      0.4889994093E+00
          0                 3           2             2   11     1       0.1099066240E-02       2   11    1         0.2860642070E-01      0.2015984287E+00
          0                 4           2             2   11     1       0.4926029533E-03       2   11    1         0.1282238042E-01      0.8897107905E-01
          0                 5           2             2   11     1       0.2207652756E-03       2   11    1         0.5746913670E-02      0.3971303184E-01
          0                 6           1             2   11     1       0.9892945331E-04       2   11    1         0.2575498081E-02      0.1775760558E-01
          0                 7           1             2   11     1       0.4432844640E-04       2   11    1         0.1154114779E-02      0.7942783506E-02
          0                 8           1             2   11     1       0.1986106659E-04       2   11    1         0.5171291433E-03      0.3553066883E-02
          0                 9           1             2   11     1       0.8897888075E-05       2   11    1         0.2316927248E-03      0.1589505178E-02

    ------------------------------------------------
       NWT REQUIRED            9 OUTER ITERATIONS 
       AND A TOTAL OF         14 INNER ITERATIONS.
    ------------------------------------------------

 NO OUTPUT CONTROL FOR STRESS PERIOD    2   TIME STEP   17
 
 SOLVING FOR HEAD 
                                                   Max.-Head-Change                         Max.-Flux-Residual
  Residual-Control   Outer-Iter.   Inner-Iter.     Column Row Layer    Maximum-Head-Change  Column Row Layer    Maximum-Flux-Residual          L2-NORM 
          0                 1           2             6   13     1       0.5550756494E-02       6   13    1         0.2926550830E+00      0.1542943509E+01
          0                 2           2             2   11     1       0.2444473701E-02       2   11    1         0.6362312871E-01      0.4868685347E+00
          0                 3           2             2   11     1       0.1095655088E-02       2   11    1         0.2851887361E-01      0.2008094296E+00
          0                 4           2             2   11     1       0.4910486948E-03       2   11    1         0.1278246002E-01      0.8863203336E-01
          0                 5           2             2   11     1       0.2200577191E-03       2   11    1         0.5728727358E-02      0.3956365065E-01
          0                 6           1             2   11     1       0.9860761567E-04       2   11    1         0.2567220304E-02      0.1769154142E-01
          0                 7           1             2   11     1       0.4418217045E-04       2   11    1         0.1150350125E-02      0.7913545861E-02
          0                 8           1             2   11     1       0.1979463322E-04       2   11    1         0.5154183389E-03      0.3540125675E-02
          0                 9           1             2   11     1       0.8867737188E-05       2   11    1         0.2309158375E-03      0.1583775256E-02

    ------------------------------------------------
       NWT REQUIRED            9 OUTER ITERATIONS 
       AND A TOTAL OF         14 INNER ITERATIONS.
    ------------------------------------------------

 NO OUTPUT CONTROL FOR STRESS PERIOD    2   TIME STEP   18
 
 SOLVING FOR HEAD 
                                                   Max.-Head-Change                         Max.-Flux-Residual
  Residual-Control   Outer-Iter.   Inner-Iter.     Column Row Layer    Maximum-Head-Change  Column Row Layer    Maximum-Flux-Residual          L2-NORM 
          0                 1           2             6   13     1       0.5458421210E-02       6   13    1         0.2877628102E+00      0.1535764339E+01
          0                 2           2             2   11     1       0.2436835501E-02       2   11    1         0.6342702551E-01      0.4849030442E+00
          0                 3           2             2   11     1       0.1092176193E-02       2   11    1         0.2842949134E-01      0.2000428960E+00
          0                 4           2             2   11     1       0.4894655495E-03       2   11    1         0.1274175648E-01      0.8829960058E-01
          0                 5           2             2   11     1       0.2193378565E-03       2   11    1         0.5710207169E-02      0.3941694356E-01
          0                 6           1             2   11     1       0.9828054009E-04       2   11    1         0.2558800310E-02      0.1762662870E-01
          0                 7           1             2   11     1       0.4403366740E-04       2   11    1         0.1146524945E-02      0.7884813451E-02
          0                 8           1             2   11     1       0.1972725355E-04       2   11    1         0.5136818050E-03      0.3527403324E-02
          0                 9           1             2   11     1       0.8837184874E-05       2   11    1         0.2301280223E-03      0.1578140967E-02

    ------------------------------------------------
       NWT REQUIRED            9 OUTER ITERATIONS 
       AND A TOTAL OF         14 INNER ITERATIONS.
    ------------------------------------------------

 NO OUTPUT CONTROL FOR STRESS PERIOD    2   TIME STEP   19
 
 SOLVING FOR HEAD 
                                                   Max.-Head-Change                         Max.-Flux-Residual
  Residual-Control   Outer-Iter.   Inner-Iter.     Column Row Layer    Maximum-Head-Change  Column Row Layer    Maximum-Flux-Residual          L2-NORM 
          0                 1           2             2   11     1       0.5419386291E-02       6   13    1         0.2829899333E+00      0.1528552566E+01
          0                 2           2             2   11     1       0.2428999671E-02       2   11    1         0.6322564623E-01      0.4830017106E+00
          0                 3           2             2   11     1       0.1088611434E-02       2   11    1         0.2833781663E-01      0.1992926884E+00
          0                 4           2             2   11     1       0.4878450993E-03       2   11    1         0.1270005695E-01      0.8797256803E-01
          0                 5           2             2   11     1       0.2186017871E-03       2   11    1         0.5691254263E-02      0.3927243841E-01
          0                 6           1             2   11     1       0.9794642387E-04       2   11    1         0.2550192326E-02      0.1756266792E-01
          0                 7           1             2   11     1       0.4388210598E-04       2   11    1         0.1142618107E-02      0.7856488830E-02
          0                 8           1             2   11     1       0.1965854567E-04       2   11    1         0.5119098003E-03      0.3514858782E-02
          0                 9           1             1    2     1       0.8817353444E-05       2   11    1         0.2293247976E-03      0.1572583975E-02

    ------------------------------------------------
       NWT REQUIRED            9 OUTER ITERATIONS 
       AND A TOTAL OF         14 INNER ITERATIONS.
    ------------------------------------------------

 NO OUTPUT CONTROL FOR STRESS PERIOD    2   TIME STEP   20
 
 SOLVING FOR HEAD 
                                                   Max.-Head-Change                         Max.-Flux-Residual
  Residual-Control   Outer-Iter.   Inner-Iter.     Column Row Layer    Maximum-Head-Change  Column Row Layer    Maximum-Flux-Residual          L2-NORM 
          0                 1           2             2   11     1       0.5401858976E-02       6   13    1         0.2783352090E+00      0.1522282685E+01
          0                 2           2             2   11     1       0.2421028474E-02       2   11    1         0.6302060034E-01      0.4811819561E+00
          0                 3           2             2   11     1       0.1084988920E-02       2   11    1         0.2824457696E-01      0.1985562094E+00
          0                 4           2             2   11     1       0.4862000262E-03       2   11    1         0.1265768980E-01      0.8765046815E-01
          0                 5           2             2   11     1       0.2178552291E-03       2   11    1         0.5672016759E-02      0.3913004257E-01
          0                 6           1             2   11     1       0.9760784418E-04       2   11    1         0.2541463137E-02      0.1749961058E-01
          0                 7           1             2   11     1       0.4372864697E-04       2   11    1         0.1138659693E-02      0.7828560234E-02
          0                 8           1             1    2     1       0.1960105215E-04       2   11    1         0.5101158670E-03      0.3502485552E-02
          0                 9           1             1    2     1       0.8799623072E-05       1    2    1         0.2287431612E-03      0.1567114692E-02

    ------------------------------------------------
       NWT REQUIRED            9 OUTER ITERATIONS 
       AND A TOTAL OF         14 INNER ITERATIONS.
    ------------------------------------------------

 NO OUTPUT CONTROL FOR STRESS PERIOD    2   TIME STEP   21
 
 SOLVING FOR HEAD 
                                                   Max.-Head-Change                         Max.-Flux-Residual
  Residual-Control   Outer-Iter.   Inner-Iter.     Column Row Layer    Maximum-Head-Change  Column Row Layer    Maximum-Flux-Residual          L2-NORM 
          0                 1           2             2   11     1       0.5383929302E-02       6   13    1         0.2737954669E+00      0.1514566762E+01
          0                 2           2             2   11     1       0.2412883314E-02       2   11    1         0.6281089144E-01      0.4791741403E+00
          0                 3           2             2   11     1       0.1081291209E-02       2   11    1         0.2814932126E-01      0.1978088466E+00
          0                 4           2             2   11     1       0.4845224541E-03       2   11    1         0.1261445122E-01      0.8733043619E-01
          0                 5           2             2   11     1       0.2170946277E-03       2   11    1         0.5652402659E-02      0.3898906578E-01
          0                 6           1             2   11     1       0.9726319791E-04       2   11    1         0.2532571220E-02      0.1743722349E-01
          0                 7           1             1    2     1       0.4357316920E-04       2   11    1         0.1134630989E-02      0.7800922910E-02
          0                 8           1             1    2     1       0.1956158538E-04       1    2    1         0.5084965527E-03      0.3490381007E-02
          0                 9           1             1    2     1       0.8781899203E-05       1    2    1         0.2282825579E-03      0.1561848462E-02

    ------------------------------------------------
       NWT REQUIRED            9 OUTER ITERATIONS 
       AND A TOTAL OF         14 INNER ITERATIONS.
    ------------------------------------------------

 NO OUTPUT CONTROL FOR STRESS PERIOD    2   TIME STEP   22
 
 SOLVING FOR HEAD 
                                                   Max.-Head-Change                         Max.-Flux-Residual
  Residual-Control   Outer-Iter.   Inner-Iter.     Column Row Layer    Maximum-Head-Change  Column Row Layer    Maximum-Flux-Residual          L2-NORM 
          0                 1           2             2   11     1       0.5365733145E-02       6   13    1         0.2692584688E+00      0.1508432310E+01
          0                 2           2             2   11     1       0.2404624646E-02       2   11    1         0.6259810233E-01      0.4774190181E+00
          0                 3           2             2   11     1       0.1077545212E-02       2   11    1         0.2805275386E-01      0.1971072658E+00
          0                 4           2             2   11     1       0.4828243689E-03       2   11    1         0.1257065480E-01      0.8703014853E-01
          0                 5           2             2   11     1       0.2163253235E-03       2   11    1         0.5632551630E-02      0.3885910953E-01
          0                 6           1             2   11     1       0.9691486413E-04       2   11    1         0.2523578806E-02      0.1738094286E-01
          0                 7           1             1    2     1       0.4348568160E-04       2   11    1         0.1130559712E-02      0.7776555546E-02
          0                 8           1             1    2     1       0.1952229593E-04       1    2    1         0.5074755129E-03      0.3479694973E-02
          0                 9           1             9    9     1       0.8764742836E-05       1    2    1         0.2278240225E-03      0.1557114046E-02

    ------------------------------------------------
       NWT REQUIRED            9 OUTER ITERATIONS 
       AND A TOTAL OF         14 INNER ITERATIONS.
    ------------------------------------------------

 NO OUTPUT CONTROL FOR STRESS PERIOD    2   TIME STEP   23
 
 SOLVING FOR HEAD 
                                                   Max.-Head-Change                         Max.-Flux-Residual
  Residual-Control   Outer-Iter.   Inner-Iter.     Column Row Layer    Maximum-Head-Change  Column Row Layer    Maximum-Flux-Residual          L2-NORM 
          0                 1           2             2   11     1       0.5347181505E-02       6   13    1         0.2645150590E+00      0.1502444759E+01
          0                 2           2             2   11     1       0.2396211964E-02       2   11    1         0.6238119178E-01      0.4756030374E+00
          0                 3           2             2   11     1       0.1073732503E-02       2   11    1         0.2795440094E-01      0.1963944036E+00
          0                 4           2             2   11     1       0.4810973916E-03       2   11    1         0.1252608500E-01      0.8672077261E-01
          0                 5           2             2   11     1       0.2155435093E-03       2   11    1         0.5612365676E-02      0.3872249955E-01
          0                 6           1             1    2     1       0.9666961125E-04       2   11    1         0.2514441379E-02      0.1732042120E-01
          0                 7           1             1    2     1       0.4339858594E-04       1    2    1         0.1128130126E-02      0.7749735349E-02
          0                 8           1             9    9     1       0.1949503233E-04       1    2    1         0.5064590570E-03      0.3467802658E-02
          0                 9           1             9    9     1       0.8762628147E-05       9    9    1         0.2275563571E-03      0.1551841351E-02

    ------------------------------------------------
       NWT REQUIRED            9 OUTER ITERATIONS 
       AND A TOTAL OF         14 INNER ITERATIONS.
    ------------------------------------------------

 NO OUTPUT CONTROL FOR STRESS PERIOD    2   TIME STEP   24
 
 SOLVING FOR HEAD 
                                                   Max.-Head-Change                         Max.-Flux-Residual
  Residual-Control   Outer-Iter.   Inner-Iter.     Column Row Layer    Maximum-Head-Change  Column Row Layer    Maximum-Flux-Residual          L2-NORM 
          0                 1           2             2   11     1       0.5328407185E-02       6   13    1         0.2597547242E+00      0.1497232228E+01
          0                 2           2             2   11     1       0.2387704888E-02       2   11    1         0.6216170965E-01      0.4739723421E+00
          0                 3           2             2   11     1       0.1069879842E-02       2   11    1         0.2785495823E-01      0.1957125163E+00
          0                 4           2             2   11     1       0.4793535315E-03       2   11    1         0.1248105410E-01      0.8642034846E-01
          0                 5           2             1    2     1       0.2148965502E-03       2   11    1         0.5591984913E-02      0.3858943540E-01
          0                 6           1             1    2     1       0.9647572942E-04       1    2    1         0.2507839952E-02      0.1726144106E-01
          0                 7           1             9    9     1       0.4336082767E-04       9    9    1         0.1126025463E-02      0.7723580000E-02
          0                 8           1             9    9     1       0.1948986203E-04       9    9    1         0.5061307323E-03      0.3456205489E-02
          0                 9           1             9    9     1       0.8760239087E-05       9    9    1         0.2274956917E-03      0.1546696258E-02

    ------------------------------------------------
       NWT REQUIRED            9 OUTER ITERATIONS 
       AND A TOTAL OF         14 INNER ITERATIONS.
    ------------------------------------------------

 NO OUTPUT CONTROL FOR STRESS PERIOD    2   TIME STEP   25
 
 SOLVING FOR HEAD 
                                                   Max.-Head-Change                         Max.-Flux-Residual
  Residual-Control   Outer-Iter.   Inner-Iter.     Column Row Layer    Maximum-Head-Change  Column Row Layer    Maximum-Flux-Residual          L2-NORM 
          0                 1           2             2   11     1       0.5309320474E-02       6   13    1         0.2550582462E+00      0.1492852513E+01
          0                 2           2             2   11     1       0.2379063374E-02       2   11    1         0.6193861012E-01      0.4724250121E+00
          0                 3           2             2   11     1       0.1065969348E-02       2   11    1         0.2775395891E-01      0.1950455889E+00
          0                 4           2             1    2     1       0.4777126580E-03       2   11    1         0.1243535359E-01      0.8612534852E-01
          0                 5           2             9    9     1       0.2145618788E-03       1    2    1         0.5574939648E-02      0.3845863578E-01
          0                 6           1             9    9     1       0.9644253218E-04       9    9    1         0.2504485888E-02      0.1720344437E-01
          0                 7           1             9    9     1       0.4334915249E-04       9    9    1         0.1125729107E-02      0.7697860934E-02
          0                 8           1             9    9     1       0.1948447039E-04       9    9    1         0.5059937716E-03      0.3444797667E-02
          0                 9           1             9    9     1       0.8757750732E-05       9    9    1         0.2274324467E-03      0.1541636921E-02

    ------------------------------------------------
       NWT REQUIRED            9 OUTER ITERATIONS 
       AND A TOTAL OF         14 INNER ITERATIONS.
    ------------------------------------------------

 NO OUTPUT CONTROL FOR STRESS PERIOD    2   TIME STEP   26
 
 SOLVING FOR HEAD 
                                                   Max.-Head-Change                         Max.-Flux-Residual
  Residual-Control   Outer-Iter.   Inner-Iter.     Column Row Layer    Maximum-Head-Change  Column Row Layer    Maximum-Flux-Residual          L2-NORM 
          0                 1           2             2   11     1       0.5290052134E-02       6   13    1         0.2505142991E+00      0.1487716915E+01
          0                 2           2             2   11     1       0.2370344677E-02       2   11    1         0.6171341216E-01      0.4707518937E+00
          0                 3           2             2   11     1       0.1062026100E-02       2   11    1         0.2765206809E-01      0.1943728252E+00
          0                 4           2             9    9     1       0.4772215880E-03       9    9    1         0.1239270563E-01      0.8583255833E-01
          0                 5           2             9    9     1       0.2145047445E-03       9    9    1         0.5570398220E-02      0.3832918843E-01
          0                 6           1             9    9     1       0.9641613046E-04       9    9    1         0.2503815569E-02      0.1714605977E-01
          0                 7           1             9    9     1       0.4333696308E-04       9    9    1         0.1125419411E-02      0.7672408955E-02
          0                 8           1             9    9     1       0.1947884714E-04       9    9    1         0.5058508105E-03      0.3433507176E-02
          0                 9           1             9    9     1       0.8755158581E-05       9    9    1         0.2273665058E-03      0.1536626214E-02

    ------------------------------------------------
       NWT REQUIRED            9 OUTER ITERATIONS 
       AND A TOTAL OF         14 INNER ITERATIONS.
    ------------------------------------------------

 NO OUTPUT CONTROL FOR STRESS PERIOD    2   TIME STEP   27
 
 SOLVING FOR HEAD 
                                                   Max.-Head-Change                         Max.-Flux-Residual
  Residual-Control   Outer-Iter.   Inner-Iter.     Column Row Layer    Maximum-Head-Change  Column Row Layer    Maximum-Flux-Residual          L2-NORM 
          0                 1           2             2   11     1       0.5270399461E-02       6   13    1         0.2459950223E+00      0.1482376211E+01
          0                 2           2             2   11     1       0.2361459484E-02       2   11    1         0.6148375869E-01      0.4691757558E+00
          0                 3           2             9    9     1       0.1061414573E-02       9    9    1         0.2756325592E-01      0.1937183149E+00
          0                 4           2             9    9     1       0.4770925377E-03       9    9    1         0.1238943013E-01      0.8554415307E-01
          0                 5           2             9    9     1       0.2144451405E-03       9    9    1         0.5568884299E-02      0.3820132881E-01
          0                 6           1             9    9     1       0.9638862425E-04       9    9    1         0.2503116445E-02      0.1708934914E-01
          0                 7           1             9    9     1       0.4332427919E-04       9    9    1         0.1125096817E-02      0.7647247607E-02
          0                 8           1             9    9     1       0.1947300255E-04       9    9    1         0.5057020708E-03      0.3422341679E-02
          0                 9           1             9    9     1       0.8752467386E-05       9    9    1         0.2272979759E-03      0.1531672520E-02

    ------------------------------------------------
       NWT REQUIRED            9 OUTER ITERATIONS 
       AND A TOTAL OF         14 INNER ITERATIONS.
    ------------------------------------------------

 NO OUTPUT CONTROL FOR STRESS PERIOD    2   TIME STEP   28
 
 SOLVING FOR HEAD 
                                                   Max.-Head-Change                         Max.-Flux-Residual
  Residual-Control   Outer-Iter.   Inner-Iter.     Column Row Layer    Maximum-Head-Change  Column Row Layer    Maximum-Flux-Residual          L2-NORM 
          0                 1           2             9    9     1       0.5252011355E-02       6   13    1         0.2414858724E+00      0.1478784381E+01
          0                 2           2             9    9     1       0.2360736730E-02       9    9    1         0.6130453289E-01      0.4677512438E+00
          0                 3           2             9    9     1       0.1061123189E-02       9    9    1         0.2755585705E-01      0.1930821961E+00
          0                 4           2             9    9     1       0.4769580210E-03       9    9    1         0.1238601211E-01      0.8526100790E-01
          0                 5           2             9    9     1       0.2143830917E-03       9    9    1         0.5567306632E-02      0.3807563520E-01
          0                 6           1             9    9     1       0.9636002430E-04       9    9    1         0.2502388809E-02      0.1703357072E-01
          0                 7           1             9    9     1       0.4331110660E-04       9    9    1         0.1124761481E-02      0.7622523059E-02
          0                 8           1             9    9     1       0.1946693936E-04       9    9    1         0.5055476383E-03      0.3411438891E-02
          0                 9           1             9    9     1       0.8749678398E-05       9    9    1         0.2272269057E-03      0.1526809188E-02

    ------------------------------------------------
       NWT REQUIRED            9 OUTER ITERATIONS 
       AND A TOTAL OF         14 INNER ITERATIONS.
    ------------------------------------------------

 NO OUTPUT CONTROL FOR STRESS PERIOD    2   TIME STEP   29
 
 SOLVING FOR HEAD 
                                                   Max.-Head-Change                         Max.-Flux-Residual
  Residual-Control   Outer-Iter.   Inner-Iter.     Column Row Layer    Maximum-Head-Change  Column Row Layer    Maximum-Flux-Residual          L2-NORM 
          0                 1           2             2    2     1       0.7251000688E-02       4   13    1         0.3882530503E+00      0.1807004407E+01
          0                 2           2             9    9     1       0.2360079097E-02       2    2    1         0.6565910604E-01      0.4936464002E+00
          0                 3           2             9    9     1       0.1060819781E-02       9    9    1         0.2754814369E-01      0.1944695558E+00
          0                 4           2             9    9     1       0.4768181544E-03       9    9    1         0.1238245400E-01      0.8520305937E-01
          0                 5           2             9    9     1       0.2143186639E-03       9    9    1         0.5565666624E-02      0.3800716628E-01
          0                 6           1             9    9     1       0.9633036838E-04       9    9    1         0.2501633472E-02      0.1700052494E-01
          0                 7           1             9    9     1       0.4329746504E-04       9    9    1         0.1124413839E-02      0.7607698572E-02
          0                 8           1             9    9     1       0.1946066832E-04       9    9    1         0.5053877448E-03      0.3404798839E-02
          0                 9           1             9    9     1       0.8746797869E-05       9    9    1         0.2271534158E-03      0.1523893881E-02

    ------------------------------------------------
       NWT REQUIRED            9 OUTER ITERATIONS 
       AND A TOTAL OF         14 INNER ITERATIONS.
    ------------------------------------------------

 NO OUTPUT CONTROL FOR STRESS PERIOD    2   TIME STEP   30



 STREAM LISTING     PERIOD      2   STEP       30

 LAYER ROW COL. STREAM  RCH.  FLOW INTO     FLOW TO   FLOW OUT OF   OVRLND.     DIRECT     STREAM       STREAM     STREAM     STREAM   STREAMBED  STREAMBED
                SEG.NO.  NO.  STRM. RCH.    AQUIFER    STRM. RCH.    RUNOFF     PRECIP       ET          HEAD       DEPTH      WIDTH   CONDCTNC.   GRADIENT

   1    1    1     1     1    2.1342E+01  2.2763E-01   2.1115E+01  0.000E+00  0.000E+00  0.000E+00  1.09417E+03  1.121E+00  1.228E+01  5.524E-02  1.374E+00
   1    2    2     1     2    2.1115E+01  3.5183E-01   2.0763E+01  0.000E+00  0.000E+00  0.000E+00  1.08917E+03  1.116E+00  1.221E+01  8.548E-02  1.372E+00
   1    3    3     1     3    2.0763E+01  2.9938E-01   2.0464E+01  0.000E+00  0.000E+00  0.000E+00  1.08353E+03  1.111E+00  1.214E+01  7.283E-02  1.370E+00
   1    3    4     1     4    2.0464E+01  2.7512E-01   2.0189E+01  0.000E+00  0.000E+00  0.000E+00  1.07851E+03  1.106E+00  1.207E+01  6.701E-02  1.369E+00
   1    4    5     2     1    1.8189E+01  3.1142E-01   1.7877E+01  0.000E+00  0.000E+00  0.000E+00  1.07293E+03  9.926E-01  1.200E+01  7.800E-02  1.331E+00
   1    5    6     2     2    1.7877E+01  2.3901E-01   1.7638E+01  0.000E+00  0.000E+00  0.000E+00  1.06749E+03  9.835E-01  1.200E+01  6.000E-02  1.328E+00
   1    6    6     2     3    1.7638E+01  2.3853E-01   1.7400E+01  0.000E+00  0.000E+00  0.000E+00  1.06277E+03  9.755E-01  1.200E+01  6.000E-02  1.325E+00
   1    7    6     2     4    1.7400E+01  2.3805E-01   1.7161E+01  0.000E+00  0.000E+00  0.000E+00  1.05804E+03  9.676E-01  1.200E+01  6.000E-02  1.323E+00
   1    8    6     2     5    1.7161E+01  2.3757E-01   1.6924E+01  0.000E+00  0.000E+00  0.000E+00  1.05332E+03  9.595E-01  1.200E+01  6.000E-02  1.320E+00
   1    3    5     3     1    2.0000E+00  2.8252E-01   1.7175E+00  0.000E+00  0.000E+00  0.000E+00  1.07555E+03  1.909E+00  9.636E+00  7.227E-02  1.955E+00
   1    3    6     3     2    1.7175E+00  2.4905E-01   1.4684E+00  0.000E+00  0.000E+00  0.000E+00  1.07264E+03  1.727E+00  8.909E+00  6.682E-02  1.864E+00
   1    3    7     3     3    1.4684E+00  1.9718E-01   1.2712E+00  0.000E+00  0.000E+00  0.000E+00  1.06987E+03  1.555E+00  8.218E+00  5.547E-02  1.777E+00
   1    4    8     3     4    1.2712E+00  2.2567E-01   1.0456E+00  0.000E+00  0.000E+00  0.000E+00  1.06682E+03  1.364E+00  7.455E+00  6.709E-02  1.682E+00
   1    5    8     3     5    1.0456E+00  1.5790E-01   8.8768E-01  0.000E+00  0.000E+00  0.000E+00  1.06362E+03  1.164E+00  6.655E+00  4.991E-02  1.582E+00
   1    6    8     3     6    8.8768E-01  5.5980E-02   8.3170E-01  0.000E+00  0.000E+00  0.000E+00  1.06158E+03  1.036E+00  6.145E+00  1.844E-02  1.518E+00
   1    5   10     4     1    1.0000E+01  9.0919E-02   9.9091E+00  0.000E+00  0.000E+00  0.000E+00  1.07836E+03  6.368E-01  1.000E+01  2.500E-02  1.212E+00
   1    5    9     4     2    9.9091E+00  1.8158E-01   9.7275E+00  0.000E+00  0.000E+00  0.000E+00  1.07154E+03  6.315E-01  1.000E+01  5.000E-02  1.211E+00
   1    6    8     4     3    9.7275E+00  1.2689E-01   9.6006E+00  0.000E+00  0.000E+00  0.000E+00  1.06381E+03  6.256E-01  1.000E+01  3.500E-02  1.209E+00
   1    6    8     5     1    1.0432E+01  2.2686E-01   1.0205E+01  0.000E+00  0.000E+00  0.000E+00  1.05868E+03  6.790E-01  1.542E+01  6.166E-02  1.226E+00
   1    7    7     5     2    1.0205E+01  2.7894E-01   9.9265E+00  0.000E+00  0.000E+00  0.000E+00  1.05417E+03  6.732E-01  1.519E+01  7.594E-02  1.224E+00
   1    8    7     5     3    9.9265E+00  1.9221E-01   9.7343E+00  0.000E+00  0.000E+00  0.000E+00  1.04992E+03  6.676E-01  1.497E+01  5.241E-02  1.223E+00
   1    8    6     5     4    9.7343E+00  1.3577E-01   9.5985E+00  0.000E+00  0.000E+00  0.000E+00  1.04691E+03  6.637E-01  1.482E+01  3.706E-02  1.221E+00
   1    9    6     6     1    2.6522E+01  2.5569E-01   2.6267E+01  0.000E+00  0.000E+00  0.000E+00  1.04399E+03  1.261E+00  1.200E+01  6.000E-02  1.420E+00
   1   10    7     6     2    2.6267E+01  2.5525E-01   2.6012E+01  0.000E+00  0.000E+00  0.000E+00  1.03944E+03  1.254E+00  1.200E+01  6.000E-02  1.418E+00
   1   11    7     6     3    2.6012E+01  2.5481E-01   2.5757E+01  0.000E+00  0.000E+00  0.000E+00  1.03488E+03  1.247E+00  1.200E+01  6.000E-02  1.416E+00
   1   12    7     6     4    2.5757E+01  2.5436E-01   2.5502E+01  0.000E+00  0.000E+00  0.000E+00  1.03033E+03  1.239E+00  1.200E+01  6.000E-02  1.413E+00
   1   13    7     6     5    2.5502E+01 -6.3364E-03   2.5509E+01  0.000E+00  0.000E+00  0.000E+00  1.02714E+03  1.236E+00  1.200E+01  2.400E-01 -8.801E-03
   1   14    9     7     1    1.5000E+02  1.2776E+00   1.4872E+02  0.000E+00  0.000E+00  0.000E+00  1.03987E+03  2.288E+00  5.530E+01  5.593E-01  7.614E-01
   1   13    8     7     2    1.4872E+02  1.7657E+00   1.4696E+02  0.000E+00  0.000E+00  0.000E+00  1.03478E+03  2.280E+00  5.526E+01  6.148E-01  9.573E-01
   1   13    7     7     3    1.4696E+02  1.4070E+00   1.4555E+02  0.000E+00  0.000E+00  0.000E+00  1.02969E+03  2.271E+00  5.522E+01  5.585E-01  8.398E-01
   1   13    6     8     1    1.7106E+02  8.5042E-01   1.7021E+02  0.000E+00  0.000E+00  0.000E+00  1.02483E+03  2.956E+00  4.287E+01  4.368E-01  6.489E-01
   1   13    5     8     2    1.7021E+02  9.4671E-02   1.7011E+02  0.000E+00  0.000E+00  0.000E+00  1.01858E+03  2.953E+00  4.282E+01  4.364E-01  7.232E-02
   1   13    4     8     3    1.7011E+02 -2.5953E+00   1.7271E+02  0.000E+00  0.000E+00  0.000E+00  1.01234E+03  2.961E+00  4.294E+01  4.376E+00 -1.977E-01
   1   13    3     8     4    1.7271E+02 -3.6374E+00   1.7635E+02  0.000E+00  0.000E+00  0.000E+00  1.00611E+03  2.981E+00  4.323E+01  4.405E+00 -2.752E-01
   1   13    2     8     5    1.7635E+02 -2.4442E+00   1.7879E+02  0.000E+00  0.000E+00  0.000E+00  9.99876E+02  3.001E+00  4.351E+01  4.434E+00 -1.837E-01
   1   13    1     8     6    1.7879E+02 -1.8631E+00   1.8065E+02  0.000E+00  0.000E+00  0.000E+00  9.94889E+02  3.014E+00  4.371E+01  2.672E+00 -2.324E-01
   1    6    8     9     1    0.0000E+00  0.0000E+00   0.0000E+00  0.000E+00  0.000E+00  0.000E+00  1.07850E+03  0.000E+00  4.000E+00  0.000E+00  1.000E+00





UNSATURATED ZONE PACKAGE VOLUMETRIC BUDGET FOR  TIME STEP    30 STRESS PERIOD    2
  ------------------------------------------------------------------------------



     CUMULATIVE VOLUMES      L**3       RATES FOR THIS TIME STEP      L**3/T
     ------------------                 ------------------------

           IN:                                      IN:
           ---                                      ---
        INFILTRATION =      183082.4255          INFILTRATION =       0.0000E+00

          OUT:                                     OUT:
          ----                                     ----
              UZF ET =      762113.9232                UZF ET =           0.2900
        UZF RECHARGE =    72560032.9009          UZF RECHARGE =          27.4786

            IN - OUT =   -73139064.3987              IN - OUT =         -27.7686

          STORAGE:                                 STORAGE:
          --------                                 --------
      STORAGE CHANGE =   -73134925.9962        STORAGE CHANGE =         -27.7684

 PERCENT DISCREPANCY IS DIFFERENCE BETWEEN IN-OUT MINUS CHANGE IN STORAGE
 DIVIDED BY THE AVERAGE OF IN AND OUT TIMES 100

 PERCENT DISCREPANCY =          -0.00     PERCENT DISCREPANCY =          -0.00






1
  VOLUMETRIC BUDGET FOR ENTIRE MODEL AT END OF TIME STEP   30, STRESS PERIOD   2
  ------------------------------------------------------------------------------

     CUMULATIVE VOLUMES      L**3       RATES FOR THIS TIME STEP      L**3/T
     ------------------                 ------------------------

           IN:                                      IN:
           ---                                      ---
             STORAGE     =      942913.4375               STORAGE     =           0.1055
       CONSTANT HEAD     =           0.0000         CONSTANT HEAD     =           0.0000
               WELLS     =           0.0000                 WELLS     =           0.0000
     HEAD DEP BOUNDS     =      769463.0625       HEAD DEP BOUNDS     =           0.2818
      STREAM LEAKAGE     =    27772326.0000        STREAM LEAKAGE     =          11.2356
        UZF RECHARGE     =    72560032.0000          UZF RECHARGE     =          27.4786
               GW ET     =           0.0000                 GW ET     =           0.0000
     SURFACE LEAKAGE     =           0.0000       SURFACE LEAKAGE     =           0.0000
    SUPPLEMENTARY WELLS  =           0.0000      SUPPLEMENTARY WELLS  =           0.0000

                TOTAL IN =   102044736.0000                  TOTAL IN =          39.1015

          OUT:                                     OUT:
          ----                                     ----
             STORAGE     =    70375224.0000               STORAGE     =          28.2617
       CONSTANT HEAD     =           0.0000         CONSTANT HEAD     =           0.0000
               WELLS     =           0.0000                 WELLS     =           0.0000
     HEAD DEP BOUNDS     =      777993.5625       HEAD DEP BOUNDS     =           0.2883
      STREAM LEAKAGE     =    30694716.0000        STREAM LEAKAGE     =          10.5464
        UZF RECHARGE     =           0.0000          UZF RECHARGE     =           0.0000
               GW ET     =      151085.3438                 GW ET     =       3.0360E-10
     SURFACE LEAKAGE     =           0.0000       SURFACE LEAKAGE     =           0.0000
    SUPPLEMENTARY WELLS  =       31277.0352      SUPPLEMENTARY WELLS  =           0.0000

               TOTAL OUT =   102030304.0000                 TOTAL OUT =          39.0963

                IN - OUT =       14432.0000                  IN - OUT =       5.1956E-03

     PERCENT DISCREPANCY =           0.01         PERCENT DISCREPANCY =           0.01






         TIME SUMMARY AT END OF TIME STEP   30 IN STRESS PERIOD    2
                    SECONDS     MINUTES      HOURS       DAYS        YEARS
                    -----------------------------------------------------------
   TIME STEP LENGTH  87600.      1460.0      24.333      1.0139     2.77588E-03
 STRESS PERIOD TIME 2.62800E+06  43800.      730.00      30.417     8.32763E-02
         TOTAL TIME 2.71440E+06  45240.      754.00      31.417     8.60141E-02
1
1
                            STRESS PERIOD NO.    3, LENGTH =   2628000.    
                            -----------------------------------------------

                              NUMBER OF TIME STEPS =    30

                               MULTIPLIER FOR DELT =     1.000

                            INITIAL TIME STEP SIZE =   87600.00    

 WELL NO.  LAYER   ROW   COL   STRESS RATE         
 --------------------------------------------------
      1      1      6      4       0.000    
      2      1      6      7       0.000    
      3      1      7      4       0.000    
      4      1      7      5       0.000    
      5      1      8      4       0.000    
      6      1      8      5       0.000    
      7      1      9      4       0.000    
      8      1      9      5       0.000    
      9      1     10      4       0.000    
     10      1     10      5       0.000    

     10 WELLS

 REUSING NON-PARAMETER GHB CELLS FROM LAST STRESS PERIOD

      2 GHB CELLS

 REUSING STREAM SEGMENT DATA FROM LAST STRESS PERIOD



            AREAL INFILTRATION RATE
 READING ON UNIT   19 WITH FORMAT: (10F4.0)            

            1           2           3           4           5           6           7           8           9          10
 ........................................................................................................................
   1    0.000       0.000       0.000       0.000       0.000       0.000       0.000       0.000       0.000       0.000    
   2    0.000       0.000       0.000       0.000       0.000       0.000       0.000       0.000       0.000       0.000    
   3    0.000       0.000       0.000       0.000       0.000       0.000       0.000       0.000       0.000       0.000    
   4    0.000       0.000       0.000       0.000       0.000       0.000       0.000       0.000       0.000       0.000    
   5    0.000       0.000       0.000       0.000       0.000       0.000       0.000       0.000       0.000       0.000    
   6    0.000       0.000       0.000       0.000       0.000       0.000       0.000       0.000       0.000       0.000    
   7    0.000       0.000       0.000       0.000       0.000       0.000       0.000       0.000       0.000       0.000    
   8    0.000       0.000       0.000       0.000       0.000       0.000       0.000       0.000       0.000       0.000    
   9    0.000       0.000       0.000       0.000       0.000       0.000       0.000       0.000       0.000       0.000    
  10    0.000       0.000       0.000       0.000       0.000       0.000       0.000       0.000       0.000       0.000    
  11    0.000       0.000       0.000       0.000       0.000       0.000       0.000       0.000       0.000       0.000    
  12    0.000       0.000       0.000       0.000       0.000       0.000       0.000       0.000       0.000       0.000    
  13    0.000       0.000       0.000       0.000       0.000       0.000       0.000       0.000       0.000       0.000    
  14    0.000       0.000       0.000       0.000       0.000       0.000       0.000       0.000       0.000       0.000    
  15    0.000       0.000       0.000       0.000       0.000       0.000       0.000       0.000       0.000       0.000    

                  ET RATE =  1.000000E-10

 USING ET EXTINCTION DEPTH FROM PREVIOUS STRESS PERIOD. CURRENT PERIOD IS:       3

 USING EXTINCTION WATER CONTENT FROM PREVIOUS STRESS PERIOD. CURRENT PERIOD IS:       3

 PROCESSING AGO STRESS PERIOD DATA

 READING AGO STRESS PERIOD DATA

 READING IRRIGATION STREAM

 READING IRRIGATION WELL

 READING SUPPLEMENTAL WEL

 END PROCESSING AGO STRESS PERIOD DATA OPTIONS
 
 SOLVING FOR HEAD 
                                                   Max.-Head-Change                         Max.-Flux-Residual
  Residual-Control   Outer-Iter.   Inner-Iter.     Column Row Layer    Maximum-Head-Change  Column Row Layer    Maximum-Flux-Residual          L2-NORM 
          0                 1           2             2    2     1       0.7313402018E-02       2    2    1         0.3813338666E+00      0.1796407507E+01
          0                 2           2             9    9     1       0.2359441801E-02       2    2    1         0.6622439374E-01      0.4924296931E+00
          0                 3           2             9    9     1       0.1060525516E-02       9    9    1         0.2754066772E-01      0.1940210047E+00
          0                 4           2             9    9     1       0.4766823956E-03       9    9    1         0.1237900261E-01      0.8500207617E-01
          0                 5           2             9    9     1       0.2142560813E-03       9    9    1         0.5564074563E-02      0.3791746534E-01
          0                 6           1             9    9     1       0.9630154058E-04       9    9    1         0.2500899661E-02      0.1696062308E-01
          0                 7           1             9    9     1       0.4328419515E-04       9    9    1         0.1124075862E-02      0.7589959140E-02
          0                 8           1             9    9     1       0.1945456461E-04       9    9    1         0.5052321934E-03      0.3396914041E-02
          0                 9           1             9    9     1       0.8743991623E-05       9    9    1         0.2270818659E-03      0.1520388307E-02

    ------------------------------------------------
       NWT REQUIRED            9 OUTER ITERATIONS 
       AND A TOTAL OF         14 INNER ITERATIONS.
    ------------------------------------------------

 OUTPUT CONTROL FOR STRESS PERIOD    3   TIME STEP    1
    PRINT BUDGET
    SAVE BUDGET
 UBUDSV SAVING "         STORAGE" ON UNIT102 AT TIME STEP     1, STRESS PERIOD    3
 UBUDSV SAVING "   CONSTANT HEAD" ON UNIT102 AT TIME STEP     1, STRESS PERIOD    3
 UBUDSV SAVING "FLOW RIGHT FACE " ON UNIT102 AT TIME STEP     1, STRESS PERIOD    3
 UBUDSV SAVING "FLOW FRONT FACE " ON UNIT102 AT TIME STEP     1, STRESS PERIOD    3

  HEAD DEP BOUNDS   PERIOD    3   STEP     1
 BOUNDARY      1   LAYER   1   ROW    13   COL     1   RATE   -0.288471    
 BOUNDARY      2   LAYER   1   ROW    14   COL     9   RATE    0.281696    



 STREAM LISTING     PERIOD      3   STEP        1

 LAYER ROW COL. STREAM  RCH.  FLOW INTO     FLOW TO   FLOW OUT OF   OVRLND.     DIRECT     STREAM       STREAM     STREAM     STREAM   STREAMBED  STREAMBED
                SEG.NO.  NO.  STRM. RCH.    AQUIFER    STRM. RCH.    RUNOFF     PRECIP       ET          HEAD       DEPTH      WIDTH   CONDCTNC.   GRADIENT

   1    1    1     1     1    2.2000E+01  2.3088E-01   2.1769E+01  0.000E+00  0.000E+00  0.000E+00  1.09418E+03  1.132E+00  1.242E+01  5.588E-02  1.377E+00
   1    2    2     1     2    2.1769E+01  3.5689E-01   2.1412E+01  0.000E+00  0.000E+00  0.000E+00  1.08919E+03  1.127E+00  1.235E+01  8.648E-02  1.376E+00
   1    3    3     1     3    2.1412E+01  3.0372E-01   2.1109E+01  0.000E+00  0.000E+00  0.000E+00  1.08354E+03  1.121E+00  1.228E+01  7.369E-02  1.374E+00
   1    3    4     1     4    2.1109E+01  2.7914E-01   2.0829E+01  0.000E+00  0.000E+00  0.000E+00  1.07852E+03  1.117E+00  1.222E+01  6.781E-02  1.372E+00
   1    4    5     2     1    1.8829E+01  3.1306E-01   1.8516E+01  0.000E+00  0.000E+00  0.000E+00  1.07295E+03  1.014E+00  1.200E+01  7.800E-02  1.338E+00
   1    5    6     2     2    1.8516E+01  2.4027E-01   1.8276E+01  0.000E+00  0.000E+00  0.000E+00  1.06751E+03  1.005E+00  1.200E+01  6.000E-02  1.335E+00
   1    6    6     2     3    1.8276E+01  2.3980E-01   1.8036E+01  0.000E+00  0.000E+00  0.000E+00  1.06279E+03  9.967E-01  1.200E+01  6.000E-02  1.332E+00
   1    7    6     2     4    1.8036E+01  2.3933E-01   1.7797E+01  0.000E+00  0.000E+00  0.000E+00  1.05806E+03  9.888E-01  1.200E+01  6.000E-02  1.330E+00
   1    8    6     2     5    1.7797E+01  2.3885E-01   1.7558E+01  0.000E+00  0.000E+00  0.000E+00  1.05334E+03  9.808E-01  1.200E+01  6.000E-02  1.327E+00
   1    3    5     3     1    2.0000E+00  2.8252E-01   1.7175E+00  0.000E+00  0.000E+00  0.000E+00  1.07555E+03  1.909E+00  9.636E+00  7.227E-02  1.955E+00
   1    3    6     3     2    1.7175E+00  2.4905E-01   1.4684E+00  0.000E+00  0.000E+00  0.000E+00  1.07264E+03  1.727E+00  8.909E+00  6.682E-02  1.864E+00
   1    3    7     3     3    1.4684E+00  1.9718E-01   1.2712E+00  0.000E+00  0.000E+00  0.000E+00  1.06987E+03  1.555E+00  8.218E+00  5.547E-02  1.777E+00
   1    4    8     3     4    1.2712E+00  2.2567E-01   1.0456E+00  0.000E+00  0.000E+00  0.000E+00  1.06682E+03  1.364E+00  7.455E+00  6.709E-02  1.682E+00
   1    5    8     3     5    1.0456E+00  1.5790E-01   8.8768E-01  0.000E+00  0.000E+00  0.000E+00  1.06362E+03  1.164E+00  6.655E+00  4.991E-02  1.582E+00
   1    6    8     3     6    8.8768E-01  5.5980E-02   8.3170E-01  0.000E+00  0.000E+00  0.000E+00  1.06158E+03  1.036E+00  6.145E+00  1.844E-02  1.518E+00
   1    5   10     4     1    1.0000E+01  9.0919E-02   9.9091E+00  0.000E+00  0.000E+00  0.000E+00  1.07836E+03  6.368E-01  1.000E+01  2.500E-02  1.212E+00
   1    5    9     4     2    9.9091E+00  1.8158E-01   9.7275E+00  0.000E+00  0.000E+00  0.000E+00  1.07154E+03  6.315E-01  1.000E+01  5.000E-02  1.211E+00
   1    6    8     4     3    9.7275E+00  1.2689E-01   9.6006E+00  0.000E+00  0.000E+00  0.000E+00  1.06381E+03  6.256E-01  1.000E+01  3.500E-02  1.209E+00
   1    6    8     5     1    1.0432E+01  2.2686E-01   1.0205E+01  0.000E+00  0.000E+00  0.000E+00  1.05868E+03  6.790E-01  1.542E+01  6.166E-02  1.226E+00
   1    7    7     5     2    1.0205E+01  2.7894E-01   9.9265E+00  0.000E+00  0.000E+00  0.000E+00  1.05417E+03  6.732E-01  1.519E+01  7.594E-02  1.224E+00
   1    8    7     5     3    9.9265E+00  1.9221E-01   9.7343E+00  0.000E+00  0.000E+00  0.000E+00  1.04992E+03  6.676E-01  1.497E+01  5.241E-02  1.223E+00
   1    8    6     5     4    9.7343E+00  1.3577E-01   9.5985E+00  0.000E+00  0.000E+00  0.000E+00  1.04691E+03  6.637E-01  1.482E+01  3.706E-02  1.221E+00
   1    9    6     6     1    2.7157E+01  2.5677E-01   2.6900E+01  0.000E+00  0.000E+00  0.000E+00  1.04401E+03  1.280E+00  1.200E+01  6.000E-02  1.427E+00
   1   10    7     6     2    2.6900E+01  2.5634E-01   2.6643E+01  0.000E+00  0.000E+00  0.000E+00  1.03945E+03  1.272E+00  1.200E+01  6.000E-02  1.424E+00
   1   11    7     6     3    2.6643E+01  2.5590E-01   2.6388E+01  0.000E+00  0.000E+00  0.000E+00  1.03490E+03  1.265E+00  1.200E+01  6.000E-02  1.422E+00
   1   12    7     6     4    2.6388E+01  2.5546E-01   2.6132E+01  0.000E+00  0.000E+00  0.000E+00  1.03035E+03  1.258E+00  1.200E+01  6.000E-02  1.419E+00
   1   13    7     6     5    2.6132E+01 -3.7671E-03   2.6136E+01  0.000E+00  0.000E+00  0.000E+00  1.02716E+03  1.254E+00  1.200E+01  2.400E-01 -5.232E-03
   1   14    9     7     1    1.5000E+02  1.2761E+00   1.4872E+02  0.000E+00  0.000E+00  0.000E+00  1.03987E+03  2.288E+00  5.530E+01  5.593E-01  7.605E-01
   1   13    8     7     2    1.4872E+02  1.7635E+00   1.4696E+02  0.000E+00  0.000E+00  0.000E+00  1.03478E+03  2.280E+00  5.526E+01  6.148E-01  9.561E-01
   1   13    7     7     3    1.4696E+02  1.4029E+00   1.4556E+02  0.000E+00  0.000E+00  0.000E+00  1.02969E+03  2.271E+00  5.522E+01  5.585E-01  8.373E-01
   1   13    6     8     1    1.7169E+02  8.5031E-01   1.7084E+02  0.000E+00  0.000E+00  0.000E+00  1.02484E+03  2.960E+00  4.293E+01  4.374E-01  6.479E-01
   1   13    5     8     2    1.7084E+02  9.4481E-02   1.7075E+02  0.000E+00  0.000E+00  0.000E+00  1.01858E+03  2.957E+00  4.288E+01  4.370E-01  7.207E-02
   1   13    4     8     3    1.7075E+02 -2.6119E+00   1.7336E+02  0.000E+00  0.000E+00  0.000E+00  1.01234E+03  2.966E+00  4.300E+01  4.382E+00 -1.987E-01
   1   13    3     8     4    1.7336E+02 -3.6514E+00   1.7701E+02  0.000E+00  0.000E+00  0.000E+00  1.00611E+03  2.986E+00  4.329E+01  4.412E+00 -2.759E-01
   1   13    2     8     5    1.7701E+02 -2.4626E+00   1.7947E+02  0.000E+00  0.000E+00  0.000E+00  9.99880E+02  3.005E+00  4.357E+01  4.440E+00 -1.849E-01
   1   13    1     8     6    1.7947E+02 -1.8670E+00   1.8134E+02  0.000E+00  0.000E+00  0.000E+00  9.94894E+02  3.019E+00  4.377E+01  2.676E+00 -2.325E-01
   1    6    8     9     1    0.0000E+00  0.0000E+00   0.0000E+00  0.000E+00  0.000E+00  0.000E+00  1.07850E+03  0.000E+00  4.000E+00  0.000E+00  1.000E+00



 UBDSV3 SAVING "     NETRECHARGE" ON UNIT 100 AT TIME STEP     1, STRESS PERIOD   3
 UBDSV3 SAVING "    NETDISCHARGE" ON UNIT 101 AT TIME STEP     1, STRESS PERIOD   3
 UBDSV3 SAVING "           GW ET" ON UNIT  61 AT TIME STEP     1, STRESS PERIOD   3
 UBDSV3 SAVING "    UZF RECHARGE" ON UNIT  61 AT TIME STEP     1, STRESS PERIOD   3
 UBDSV3 SAVING " SURFACE LEAKAGE" ON UNIT  61 AT TIME STEP     1, STRESS PERIOD   3
 UBDSV3 SAVING "       HORT+DUNN" ON UNIT  61 AT TIME STEP     1, STRESS PERIOD   3
 UBDSV3 SAVING "  STORAGE CHANGE" ON UNIT  61 AT TIME STEP     1, STRESS PERIOD   3


UNSATURATED ZONE PACKAGE VOLUMETRIC BUDGET FOR  TIME STEP     1 STRESS PERIOD    3
  ------------------------------------------------------------------------------



     CUMULATIVE VOLUMES      L**3       RATES FOR THIS TIME STEP      L**3/T
     ------------------                 ------------------------

           IN:                                      IN:
           ---                                      ---
        INFILTRATION =      183082.4255          INFILTRATION =       0.0000E+00

          OUT:                                     OUT:
          ----                                     ----
              UZF ET =      787517.9232                UZF ET =           0.2900
        UZF RECHARGE =    74965340.0757          UZF RECHARGE =          27.4578

            IN - OUT =   -75569775.5735              IN - OUT =         -27.7478

          STORAGE:                                 STORAGE:
          --------                                 --------
      STORAGE CHANGE =   -75565619.6064        STORAGE CHANGE =         -27.7476

 PERCENT DISCREPANCY IS DIFFERENCE BETWEEN IN-OUT MINUS CHANGE IN STORAGE
 DIVIDED BY THE AVERAGE OF IN AND OUT TIMES 100

 PERCENT DISCREPANCY =          -0.00     PERCENT DISCREPANCY =          -0.00






1
  VOLUMETRIC BUDGET FOR ENTIRE MODEL AT END OF TIME STEP    1, STRESS PERIOD   3
  ------------------------------------------------------------------------------

     CUMULATIVE VOLUMES      L**3       RATES FOR THIS TIME STEP      L**3/T
     ------------------                 ------------------------

           IN:                                      IN:
           ---                                      ---
             STORAGE     =      951411.5625               STORAGE     =       9.7011E-02
       CONSTANT HEAD     =           0.0000         CONSTANT HEAD     =           0.0000
               WELLS     =           0.0000                 WELLS     =           0.0000
     HEAD DEP BOUNDS     =      794139.6250       HEAD DEP BOUNDS     =           0.2817
      STREAM LEAKAGE     =    28758276.0000        STREAM LEAKAGE     =          11.2551
        UZF RECHARGE     =    74965336.0000          UZF RECHARGE     =          27.4578
               GW ET     =           0.0000                 GW ET     =           0.0000
     SURFACE LEAKAGE     =           0.0000       SURFACE LEAKAGE     =           0.0000
    SUPPLEMENTARY WELLS  =           0.0000      SUPPLEMENTARY WELLS  =           0.0000

                TOTAL IN =   105469168.0000                  TOTAL IN =          39.0917

          OUT:                                     OUT:
          ----                                     ----
             STORAGE     =    72845664.0000               STORAGE     =          28.2014
       CONSTANT HEAD     =           0.0000         CONSTANT HEAD     =           0.0000
               WELLS     =           0.0000                 WELLS     =           0.0000
     HEAD DEP BOUNDS     =      803263.6250       HEAD DEP BOUNDS     =           0.2885
      STREAM LEAKAGE     =    31622984.0000        STREAM LEAKAGE     =          10.5967
        UZF RECHARGE     =           0.0000          UZF RECHARGE     =           0.0000
               GW ET     =      151085.3438                 GW ET     =       3.0357E-10
     SURFACE LEAKAGE     =           0.0000       SURFACE LEAKAGE     =           0.0000
    SUPPLEMENTARY WELLS  =       31277.0352      SUPPLEMENTARY WELLS  =           0.0000

               TOTAL OUT =   105454280.0000                 TOTAL OUT =          39.0865

                IN - OUT =       14888.0000                  IN - OUT =       5.1994E-03

     PERCENT DISCREPANCY =           0.01         PERCENT DISCREPANCY =           0.01






         TIME SUMMARY AT END OF TIME STEP    1 IN STRESS PERIOD    3
                    SECONDS     MINUTES      HOURS       DAYS        YEARS
                    -----------------------------------------------------------
   TIME STEP LENGTH  87600.      1460.0      24.333      1.0139     2.77588E-03
 STRESS PERIOD TIME  87600.      1460.0      24.333      1.0139     2.77588E-03
         TOTAL TIME 2.80200E+06  46700.      778.33      32.431     8.87900E-02
1
 
 SOLVING FOR HEAD 
                                                   Max.-Head-Change                         Max.-Flux-Residual
  Residual-Control   Outer-Iter.   Inner-Iter.     Column Row Layer    Maximum-Head-Change  Column Row Layer    Maximum-Flux-Residual          L2-NORM 
          0                 1           2             2    2     1       0.7278831769E-02       2    2    1         0.3795114713E+00      0.1772040455E+01
          0                 2           2             9    9     1       0.2358730923E-02       2    2    1         0.6591333858E-01      0.4898119864E+00
          0                 3           2             9    9     1       0.1060198319E-02       9    9    1         0.2753233357E-01      0.1934692143E+00
          0                 4           2             9    9     1       0.4765318970E-03       9    9    1         0.1237516712E-01      0.8479268429E-01
          0                 5           2             9    9     1       0.2141869021E-03       9    9    1         0.5562310598E-02      0.3782634797E-01
          0                 6           1             9    9     1       0.9626976047E-04       9    9    1         0.2500088913E-02      0.1692022601E-01
          0                 7           1             9    9     1       0.4326960417E-04       9    9    1         0.1123703454E-02      0.7572006782E-02
          0                 8           1             9    9     1       0.1944786889E-04       9    9    1         0.5050612274E-03      0.3388932428E-02
          0                 9           1             9    9     1       0.8740921260E-05       9    9    1         0.2270034262E-03      0.1516839330E-02

    ------------------------------------------------
       NWT REQUIRED            9 OUTER ITERATIONS 
       AND A TOTAL OF         14 INNER ITERATIONS.
    ------------------------------------------------

 NO OUTPUT CONTROL FOR STRESS PERIOD    3   TIME STEP    2
 
 SOLVING FOR HEAD 
                                                   Max.-Head-Change                         Max.-Flux-Residual
  Residual-Control   Outer-Iter.   Inner-Iter.     Column Row Layer    Maximum-Head-Change  Column Row Layer    Maximum-Flux-Residual          L2-NORM 
          0                 1           2             2    2     1       0.7244902904E-02       2    2    1         0.3777229397E+00      0.1749629794E+01
          0                 2           2             9    9     1       0.2357994186E-02       2    2    1         0.6560804917E-01      0.4876442401E+00
          0                 3           2             9    9     1       0.1059859602E-02       9    9    1         0.2752369805E-01      0.1929558694E+00
          0                 4           2             9    9     1       0.4763762677E-03       9    9    1         0.1237119738E-01      0.8458578982E-01
          0                 5           2             9    9     1       0.2141154374E-03       9    9    1         0.5560486832E-02      0.3773539890E-01
          0                 6           1             9    9     1       0.9623696216E-04       9    9    1         0.2499251531E-02      0.1687984279E-01
          0                 7           1             9    9     1       0.4325455974E-04       9    9    1         0.1123319183E-02      0.7554053051E-02
          0                 8           1             9    9     1       0.1944097208E-04       9    9    1         0.5048849800E-03      0.3380948562E-02
          0                 9           1             8    2     1       0.8737897168E-05       9    9    1         0.2269226262E-03      0.1513288626E-02

    ------------------------------------------------
       NWT REQUIRED            9 OUTER ITERATIONS 
       AND A TOTAL OF         14 INNER ITERATIONS.
    ------------------------------------------------

 NO OUTPUT CONTROL FOR STRESS PERIOD    3   TIME STEP    3
 
 SOLVING FOR HEAD 
                                                   Max.-Head-Change                         Max.-Flux-Residual
  Residual-Control   Outer-Iter.   Inner-Iter.     Column Row Layer    Maximum-Head-Change  Column Row Layer    Maximum-Flux-Residual          L2-NORM 
          0                 1           2             2    2     1       0.7211688210E-02       2    2    1         0.3759720712E+00      0.1733074206E+01
          0                 2           2             9    9     1       0.2357231941E-02       2    2    1         0.6530918418E-01      0.4858186313E+00
          0                 3           2             9    9     1       0.1059509506E-02       9    9    1         0.2751476520E-01      0.1924594056E+00
          0                 4           2             9    9     1       0.4762155618E-03       9    9    1         0.1236709499E-01      0.8438017068E-01
          0                 5           2             9    9     1       0.2140417074E-03       9    9    1         0.5558603880E-02      0.3764472456E-01
          0                 6           1             9    9     1       0.9620315390E-04       9    9    1         0.2498387747E-02      0.1683955843E-01
          0                 7           1             8    2     1       0.4324058178E-04       9    9    1         0.1122923134E-02      0.7536139412E-02
          0                 8           1             8    2     1       0.1943655712E-04       8    2    1         0.5047300954E-03      0.3372981662E-02
          0                 9           1             8    2     1       0.8736679627E-05       8    2    1         0.2268751178E-03      0.1509745352E-02

    ------------------------------------------------
       NWT REQUIRED            9 OUTER ITERATIONS 
       AND A TOTAL OF         14 INNER ITERATIONS.
    ------------------------------------------------

 NO OUTPUT CONTROL FOR STRESS PERIOD    3   TIME STEP    4
 
 SOLVING FOR HEAD 
                                                   Max.-Head-Change                         Max.-Flux-Residual
  Residual-Control   Outer-Iter.   Inner-Iter.     Column Row Layer    Maximum-Head-Change  Column Row Layer    Maximum-Flux-Residual          L2-NORM 
          0                 1           2             2    2     1       0.7179083223E-02       2    2    1         0.3742534340E+00      0.1718789953E+01
          0                 2           2             9    9     1       0.2356444425E-02       2    2    1         0.6501579616E-01      0.4841243833E+00
          0                 3           2             9    9     1       0.1059148107E-02       9    9    1         0.2750553763E-01      0.1919701984E+00
          0                 4           2             9    9     1       0.4760498010E-03       9    9    1         0.1236286080E-01      0.8417541940E-01
          0                 5           2             8    2     1       0.2139807063E-03       9    9    1         0.5556662001E-02      0.3755426514E-01
          0                 6           1             8    2     1       0.9618411895E-04       8    2    1         0.2497712559E-02      0.1679935407E-01
          0                 7           1             8    2     1       0.4323459863E-04       8    2    1         0.1122719040E-02      0.7518261416E-02
          0                 8           1             8    2     1       0.1943384716E-04       8    2    1         0.5046601560E-03      0.3365028564E-02
          0                 9           1             8    2     1       0.8735452582E-05       8    2    1         0.2268434466E-03      0.1506207003E-02

    ------------------------------------------------
       NWT REQUIRED            9 OUTER ITERATIONS 
       AND A TOTAL OF         14 INNER ITERATIONS.
    ------------------------------------------------

 OUTPUT CONTROL FOR STRESS PERIOD    3   TIME STEP    5
    PRINT BUDGET
    SAVE BUDGET
 UBUDSV SAVING "         STORAGE" ON UNIT102 AT TIME STEP     5, STRESS PERIOD    3
 UBUDSV SAVING "   CONSTANT HEAD" ON UNIT102 AT TIME STEP     5, STRESS PERIOD    3
 UBUDSV SAVING "FLOW RIGHT FACE " ON UNIT102 AT TIME STEP     5, STRESS PERIOD    3
 UBUDSV SAVING "FLOW FRONT FACE " ON UNIT102 AT TIME STEP     5, STRESS PERIOD    3

  HEAD DEP BOUNDS   PERIOD    3   STEP     5
 BOUNDARY      1   LAYER   1   ROW    13   COL     1   RATE   -0.289063    
 BOUNDARY      2   LAYER   1   ROW    14   COL     9   RATE    0.281288    



 STREAM LISTING     PERIOD      3   STEP        5

 LAYER ROW COL. STREAM  RCH.  FLOW INTO     FLOW TO   FLOW OUT OF   OVRLND.     DIRECT     STREAM       STREAM     STREAM     STREAM   STREAMBED  STREAMBED
                SEG.NO.  NO.  STRM. RCH.    AQUIFER    STRM. RCH.    RUNOFF     PRECIP       ET          HEAD       DEPTH      WIDTH   CONDCTNC.   GRADIENT

   1    1    1     1     1    2.2000E+01  2.3088E-01   2.1769E+01  0.000E+00  0.000E+00  0.000E+00  1.09418E+03  1.132E+00  1.242E+01  5.588E-02  1.377E+00
   1    2    2     1     2    2.1769E+01  3.5689E-01   2.1412E+01  0.000E+00  0.000E+00  0.000E+00  1.08919E+03  1.127E+00  1.235E+01  8.648E-02  1.376E+00
   1    3    3     1     3    2.1412E+01  3.0372E-01   2.1109E+01  0.000E+00  0.000E+00  0.000E+00  1.08354E+03  1.121E+00  1.228E+01  7.369E-02  1.374E+00
   1    3    4     1     4    2.1109E+01  2.7914E-01   2.0829E+01  0.000E+00  0.000E+00  0.000E+00  1.07852E+03  1.117E+00  1.222E+01  6.781E-02  1.372E+00
   1    4    5     2     1    1.8829E+01  3.1306E-01   1.8516E+01  0.000E+00  0.000E+00  0.000E+00  1.07295E+03  1.014E+00  1.200E+01  7.800E-02  1.338E+00
   1    5    6     2     2    1.8516E+01  2.4027E-01   1.8276E+01  0.000E+00  0.000E+00  0.000E+00  1.06751E+03  1.005E+00  1.200E+01  6.000E-02  1.335E+00
   1    6    6     2     3    1.8276E+01  2.3980E-01   1.8036E+01  0.000E+00  0.000E+00  0.000E+00  1.06279E+03  9.967E-01  1.200E+01  6.000E-02  1.332E+00
   1    7    6     2     4    1.8036E+01  2.3933E-01   1.7797E+01  0.000E+00  0.000E+00  0.000E+00  1.05806E+03  9.888E-01  1.200E+01  6.000E-02  1.330E+00
   1    8    6     2     5    1.7797E+01  2.3885E-01   1.7558E+01  0.000E+00  0.000E+00  0.000E+00  1.05334E+03  9.808E-01  1.200E+01  6.000E-02  1.327E+00
   1    3    5     3     1    2.0000E+00  2.8252E-01   1.7175E+00  0.000E+00  0.000E+00  0.000E+00  1.07555E+03  1.909E+00  9.636E+00  7.227E-02  1.955E+00
   1    3    6     3     2    1.7175E+00  2.4905E-01   1.4684E+00  0.000E+00  0.000E+00  0.000E+00  1.07264E+03  1.727E+00  8.909E+00  6.682E-02  1.864E+00
   1    3    7     3     3    1.4684E+00  1.9718E-01   1.2712E+00  0.000E+00  0.000E+00  0.000E+00  1.06987E+03  1.555E+00  8.218E+00  5.547E-02  1.777E+00
   1    4    8     3     4    1.2712E+00  2.2567E-01   1.0456E+00  0.000E+00  0.000E+00  0.000E+00  1.06682E+03  1.364E+00  7.455E+00  6.709E-02  1.682E+00
   1    5    8     3     5    1.0456E+00  1.5790E-01   8.8768E-01  0.000E+00  0.000E+00  0.000E+00  1.06362E+03  1.164E+00  6.655E+00  4.991E-02  1.582E+00
   1    6    8     3     6    8.8768E-01  5.5980E-02   8.3170E-01  0.000E+00  0.000E+00  0.000E+00  1.06158E+03  1.036E+00  6.145E+00  1.844E-02  1.518E+00
   1    5   10     4     1    1.0000E+01  9.0919E-02   9.9091E+00  0.000E+00  0.000E+00  0.000E+00  1.07836E+03  6.368E-01  1.000E+01  2.500E-02  1.212E+00
   1    5    9     4     2    9.9091E+00  1.8158E-01   9.7275E+00  0.000E+00  0.000E+00  0.000E+00  1.07154E+03  6.315E-01  1.000E+01  5.000E-02  1.211E+00
   1    6    8     4     3    9.7275E+00  1.2689E-01   9.6006E+00  0.000E+00  0.000E+00  0.000E+00  1.06381E+03  6.256E-01  1.000E+01  3.500E-02  1.209E+00
   1    6    8     5     1    1.0432E+01  2.2686E-01   1.0205E+01  0.000E+00  0.000E+00  0.000E+00  1.05868E+03  6.790E-01  1.542E+01  6.166E-02  1.226E+00
   1    7    7     5     2    1.0205E+01  2.7894E-01   9.9265E+00  0.000E+00  0.000E+00  0.000E+00  1.05417E+03  6.732E-01  1.519E+01  7.594E-02  1.224E+00
   1    8    7     5     3    9.9265E+00  1.9221E-01   9.7343E+00  0.000E+00  0.000E+00  0.000E+00  1.04992E+03  6.676E-01  1.497E+01  5.241E-02  1.223E+00
   1    8    6     5     4    9.7343E+00  1.3577E-01   9.5985E+00  0.000E+00  0.000E+00  0.000E+00  1.04691E+03  6.637E-01  1.482E+01  3.706E-02  1.221E+00
   1    9    6     6     1    2.7157E+01  2.5677E-01   2.6900E+01  0.000E+00  0.000E+00  0.000E+00  1.04401E+03  1.280E+00  1.200E+01  6.000E-02  1.427E+00
   1   10    7     6     2    2.6900E+01  2.5634E-01   2.6643E+01  0.000E+00  0.000E+00  0.000E+00  1.03945E+03  1.272E+00  1.200E+01  6.000E-02  1.424E+00
   1   11    7     6     3    2.6643E+01  2.5590E-01   2.6388E+01  0.000E+00  0.000E+00  0.000E+00  1.03490E+03  1.265E+00  1.200E+01  6.000E-02  1.422E+00
   1   12    7     6     4    2.6388E+01  2.5546E-01   2.6132E+01  0.000E+00  0.000E+00  0.000E+00  1.03035E+03  1.258E+00  1.200E+01  6.000E-02  1.419E+00
   1   13    7     6     5    2.6132E+01 -1.0462E-02   2.6143E+01  0.000E+00  0.000E+00  0.000E+00  1.02716E+03  1.254E+00  1.200E+01  2.400E-01 -1.453E-02
   1   14    9     7     1    1.5000E+02  1.2701E+00   1.4873E+02  0.000E+00  0.000E+00  0.000E+00  1.03987E+03  2.288E+00  5.530E+01  5.593E-01  7.570E-01
   1   13    8     7     2    1.4873E+02  1.7545E+00   1.4698E+02  0.000E+00  0.000E+00  0.000E+00  1.03478E+03  2.280E+00  5.526E+01  6.148E-01  9.513E-01
   1   13    7     7     3    1.4698E+02  1.3873E+00   1.4559E+02  0.000E+00  0.000E+00  0.000E+00  1.02969E+03  2.271E+00  5.522E+01  5.585E-01  8.280E-01
   1   13    6     8     1    1.7173E+02  8.3866E-01   1.7089E+02  0.000E+00  0.000E+00  0.000E+00  1.02484E+03  2.961E+00  4.293E+01  4.375E-01  6.390E-01
   1   13    5     8     2    1.7089E+02  8.6896E-02   1.7081E+02  0.000E+00  0.000E+00  0.000E+00  1.01858E+03  2.958E+00  4.289E+01  4.370E-01  6.628E-02
   1   13    4     8     3    1.7081E+02 -2.7076E+00   1.7351E+02  0.000E+00  0.000E+00  0.000E+00  1.01234E+03  2.966E+00  4.301E+01  4.383E+00 -2.059E-01
   1   13    3     8     4    1.7351E+02 -3.7365E+00   1.7725E+02  0.000E+00  0.000E+00  0.000E+00  1.00611E+03  2.987E+00  4.331E+01  4.413E+00 -2.822E-01
   1   13    2     8     5    1.7725E+02 -2.5633E+00   1.7981E+02  0.000E+00  0.000E+00  0.000E+00  9.99882E+02  3.007E+00  4.360E+01  4.443E+00 -1.923E-01
   1   13    1     8     6    1.7981E+02 -1.9041E+00   1.8172E+02  0.000E+00  0.000E+00  0.000E+00  9.94896E+02  3.021E+00  4.380E+01  2.678E+00 -2.370E-01
   1    6    8     9     1    0.0000E+00  0.0000E+00   0.0000E+00  0.000E+00  0.000E+00  0.000E+00  1.07850E+03  0.000E+00  4.000E+00  0.000E+00  1.000E+00



 UBDSV3 SAVING "     NETRECHARGE" ON UNIT 100 AT TIME STEP     5, STRESS PERIOD   3
 UBDSV3 SAVING "    NETDISCHARGE" ON UNIT 101 AT TIME STEP     5, STRESS PERIOD   3
 UBDSV3 SAVING "           GW ET" ON UNIT  61 AT TIME STEP     5, STRESS PERIOD   3
 UBDSV3 SAVING "    UZF RECHARGE" ON UNIT  61 AT TIME STEP     5, STRESS PERIOD   3
 UBDSV3 SAVING " SURFACE LEAKAGE" ON UNIT  61 AT TIME STEP     5, STRESS PERIOD   3
 UBDSV3 SAVING "       HORT+DUNN" ON UNIT  61 AT TIME STEP     5, STRESS PERIOD   3
 UBDSV3 SAVING "  STORAGE CHANGE" ON UNIT  61 AT TIME STEP     5, STRESS PERIOD   3


UNSATURATED ZONE PACKAGE VOLUMETRIC BUDGET FOR  TIME STEP     5 STRESS PERIOD    3
  ------------------------------------------------------------------------------



     CUMULATIVE VOLUMES      L**3       RATES FOR THIS TIME STEP      L**3/T
     ------------------                 ------------------------

           IN:                                      IN:
           ---                                      ---
        INFILTRATION =      183082.4255          INFILTRATION =       0.0000E+00

          OUT:                                     OUT:
          ----                                     ----
              UZF ET =      889133.9232                UZF ET =           0.2900
        UZF RECHARGE =    84533127.7628          UZF RECHARGE =          27.2395

            IN - OUT =   -85239179.2605              IN - OUT =         -27.5295

          STORAGE:                                 STORAGE:
          --------                                 --------
      STORAGE CHANGE =   -85234962.6334        STORAGE CHANGE =         -27.5293

 PERCENT DISCREPANCY IS DIFFERENCE BETWEEN IN-OUT MINUS CHANGE IN STORAGE
 DIVIDED BY THE AVERAGE OF IN AND OUT TIMES 100

 PERCENT DISCREPANCY =          -0.00     PERCENT DISCREPANCY =          -0.00






1
  VOLUMETRIC BUDGET FOR ENTIRE MODEL AT END OF TIME STEP    5, STRESS PERIOD   3
  ------------------------------------------------------------------------------

     CUMULATIVE VOLUMES      L**3       RATES FOR THIS TIME STEP      L**3/T
     ------------------                 ------------------------

           IN:                                      IN:
           ---                                      ---
             STORAGE     =      978486.3750               STORAGE     =       6.6016E-02
       CONSTANT HEAD     =           0.0000         CONSTANT HEAD     =           0.0000
               WELLS     =           0.0000                 WELLS     =           0.0000
     HEAD DEP BOUNDS     =      892756.2500       HEAD DEP BOUNDS     =           0.2813
      STREAM LEAKAGE     =    32691104.0000        STREAM LEAKAGE     =          11.2054
        UZF RECHARGE     =    84533120.0000          UZF RECHARGE     =          27.2395
               GW ET     =           0.0000                 GW ET     =           0.0000
     SURFACE LEAKAGE     =           0.0000       SURFACE LEAKAGE     =           0.0000
    SUPPLEMENTARY WELLS  =           0.0000      SUPPLEMENTARY WELLS  =           0.0000

                TOTAL IN =   119095472.0000                  TOTAL IN =          38.7922

          OUT:                                     OUT:
          ----                                     ----
             STORAGE     =    82581448.0000               STORAGE     =          27.5760
       CONSTANT HEAD     =           0.0000         CONSTANT HEAD     =           0.0000
               WELLS     =           0.0000                 WELLS     =           0.0000
     HEAD DEP BOUNDS     =      904478.3750       HEAD DEP BOUNDS     =           0.2891
      STREAM LEAKAGE     =    35410484.0000        STREAM LEAKAGE     =          10.9220
        UZF RECHARGE     =           0.0000          UZF RECHARGE     =           0.0000
               GW ET     =      151085.3438                 GW ET     =       3.0356E-10
     SURFACE LEAKAGE     =           0.0000       SURFACE LEAKAGE     =           0.0000
    SUPPLEMENTARY WELLS  =       31277.0352      SUPPLEMENTARY WELLS  =           0.0000

               TOTAL OUT =   119078784.0000                 TOTAL OUT =          38.7871

                IN - OUT =       16688.0000                  IN - OUT =       5.1422E-03

     PERCENT DISCREPANCY =           0.01         PERCENT DISCREPANCY =           0.01






         TIME SUMMARY AT END OF TIME STEP    5 IN STRESS PERIOD    3
                    SECONDS     MINUTES      HOURS       DAYS        YEARS
                    -----------------------------------------------------------
   TIME STEP LENGTH  87600.      1460.0      24.333      1.0139     2.77588E-03
 STRESS PERIOD TIME 4.38000E+05  7300.0      121.67      5.0694     1.38794E-02
         TOTAL TIME 3.15240E+06  52540.      875.67      36.486     9.98935E-02
1
 
 SOLVING FOR HEAD 
                                                   Max.-Head-Change                         Max.-Flux-Residual
  Residual-Control   Outer-Iter.   Inner-Iter.     Column Row Layer    Maximum-Head-Change  Column Row Layer    Maximum-Flux-Residual          L2-NORM 
          0                 1           2             2    2     1       0.7147248610E-02       2    2    1         0.3725753860E+00      0.1706392866E+01
          0                 2           2             8    2     1       0.2355731212E-02       2    2    1         0.6472934192E-01      0.4825398050E+00
          0                 3           2             8    2     1       0.1058902775E-02       8    2    1         0.2749754036E-01      0.1914873316E+00
          0                 4           2             8    2     1       0.4759767718E-03       8    2    1         0.1236015982E-01      0.8397127482E-01
          0                 5           2             8    2     1       0.2139512090E-03       8    2    1         0.5555890017E-02      0.3746398647E-01
          0                 6           1             8    2     1       0.9617075702E-04       8    2    1         0.2497367772E-02      0.1675922382E-01
          0                 7           1             8    2     1       0.4322854494E-04       8    2    1         0.1122562852E-02      0.7500409184E-02
          0                 8           1             8    2     1       0.1943110445E-04       8    2    1         0.5045893995E-03      0.3357086246E-02
          0                 9           1             8    2     1       0.8734210031E-05       8    2    1         0.2268113902E-03      0.1502674055E-02

    ------------------------------------------------
       NWT REQUIRED            9 OUTER ITERATIONS 
       AND A TOTAL OF         14 INNER ITERATIONS.
    ------------------------------------------------

 NO OUTPUT CONTROL FOR STRESS PERIOD    3   TIME STEP    6
 
 SOLVING FOR HEAD 
                                                   Max.-Head-Change                         Max.-Flux-Residual
  Residual-Control   Outer-Iter.   Inner-Iter.     Column Row Layer    Maximum-Head-Change  Column Row Layer    Maximum-Flux-Residual          L2-NORM 
          0                 1           2             2    2     1       0.7115992927E-02       2    2    1         0.3709279018E+00      0.1695326687E+01
          0                 2           2             8    2     1       0.2355411116E-02       2    2    1         0.6444809228E-01      0.4808175222E+00
          0                 3           2             8    2     1       0.1058757880E-02       8    2    1         0.2749379933E-01      0.1910000387E+00
          0                 4           2             8    2     1       0.4759111752E-03       8    2    1         0.1235846636E-01      0.8376772542E-01
          0                 5           2             8    2     1       0.2139215088E-03       8    2    1         0.5555123340E-02      0.3737411883E-01
          0                 6           1             8    2     1       0.9615730780E-04       8    2    1         0.2497020631E-02      0.1671932491E-01
          0                 7           1             8    2     1       0.4322245424E-04       8    2    1         0.1122405655E-02      0.7482686001E-02
          0                 8           1             8    2     1       0.1942834547E-04       8    2    1         0.5045182054E-03      0.3349213773E-02
          0                 9           1             8    2     1       0.8732960226E-05       8    2    1         0.2267791476E-03      0.1499177519E-02

    ------------------------------------------------
       NWT REQUIRED            9 OUTER ITERATIONS 
       AND A TOTAL OF         14 INNER ITERATIONS.
    ------------------------------------------------

 NO OUTPUT CONTROL FOR STRESS PERIOD    3   TIME STEP    7
 
 SOLVING FOR HEAD 
                                                   Max.-Head-Change                         Max.-Flux-Residual
  Residual-Control   Outer-Iter.   Inner-Iter.     Column Row Layer    Maximum-Head-Change  Column Row Layer    Maximum-Flux-Residual          L2-NORM 
          0                 1           2             2    2     1       0.7085302765E-02       2    2    1         0.3693102565E+00      0.1683568109E+01
          0                 2           2             8    2     1       0.2355087949E-02       2    2    1         0.6417192832E-01      0.4793759247E+00
          0                 3           2             8    2     1       0.1058611478E-02       8    2    1         0.2749002184E-01      0.1905277952E+00
          0                 4           2             8    2     1       0.4758448452E-03       8    2    1         0.1235675505E-01      0.8356537293E-01
          0                 5           2             8    2     1       0.2138914542E-03       8    2    1         0.5554347990E-02      0.3728448824E-01
          0                 6           1             8    2     1       0.9614368800E-04       8    2    1         0.2496669300E-02      0.1667947591E-01
          0                 7           1             8    2     1       0.4321628175E-04       8    2    1         0.1122246445E-02      0.7464958233E-02
          0                 8           1             8    2     1       0.1942554823E-04       8    2    1         0.5044460527E-03      0.3341328134E-02
          0                 9           1             8    2     1       0.8731692163E-05       8    2    1         0.2267464407E-03      0.1495668152E-02

    ------------------------------------------------
       NWT REQUIRED            9 OUTER ITERATIONS 
       AND A TOTAL OF         14 INNER ITERATIONS.
    ------------------------------------------------

 NO OUTPUT CONTROL FOR STRESS PERIOD    3   TIME STEP    8
 
 SOLVING FOR HEAD 
                                                   Max.-Head-Change                         Max.-Flux-Residual
  Residual-Control   Outer-Iter.   Inner-Iter.     Column Row Layer    Maximum-Head-Change  Column Row Layer    Maximum-Flux-Residual          L2-NORM 
          0                 1           2             2    2     1       0.7055252104E-02       2    2    1         0.3677263731E+00      0.1674971481E+01
          0                 2           2             8    2     1       0.2354761738E-02       2    2    1         0.6390151342E-01      0.4778911592E+00
          0                 3           2             8    2     1       0.1058463702E-02       8    2    1         0.2748620879E-01      0.1900479329E+00
          0                 4           2             8    2     1       0.4757778948E-03       8    2    1         0.1235502768E-01      0.8336291833E-01
          0                 5           2             8    2     1       0.2138611190E-03       8    2    1         0.5553565384E-02      0.3719502460E-01
          0                 6           1             8    2     1       0.9612994215E-04       8    2    1         0.2496314701E-02      0.1663970074E-01
          0                 7           1             8    2     1       0.4321005273E-04       8    2    1         0.1122085761E-02      0.7447265128E-02
          0                 8           1             8    2     1       0.1942272498E-04       8    2    1         0.5043732284E-03      0.3333451916E-02
          0                 9           1             8    2     1       0.8730412595E-05       8    2    1         0.2267134348E-03      0.1492163017E-02

    ------------------------------------------------
       NWT REQUIRED            9 OUTER ITERATIONS 
       AND A TOTAL OF         14 INNER ITERATIONS.
    ------------------------------------------------

 NO OUTPUT CONTROL FOR STRESS PERIOD    3   TIME STEP    9
 
 SOLVING FOR HEAD 
                                                   Max.-Head-Change                         Max.-Flux-Residual
  Residual-Control   Outer-Iter.   Inner-Iter.     Column Row Layer    Maximum-Head-Change  Column Row Layer    Maximum-Flux-Residual          L2-NORM 
          0                 1           2             2    2     1       0.7025826036E-02       2    2    1         0.3661754444E+00      0.1666265173E+01
          0                 2           2             8    2     1       0.2354432211E-02       2    2    1         0.6363671558E-01      0.4765432546E+00
          0                 3           2             8    2     1       0.1058314367E-02       8    2    1         0.2748235672E-01      0.1895835614E+00
          0                 4           2             8    2     1       0.4757102135E-03       8    2    1         0.1235328197E-01      0.8316263765E-01
          0                 5           2             8    2     1       0.2138304416E-03       8    2    1         0.5552774178E-02      0.3710618757E-01
          0                 6           1             8    2     1       0.9611603672E-04       8    2    1         0.2495956077E-02      0.1660018045E-01
          0                 7           1             8    2     1       0.4320374868E-04       8    2    1         0.1121923194E-02      0.7429675983E-02
          0                 8           1             8    2     1       0.1941986721E-04       8    2    1         0.5042995361E-03      0.3325624676E-02
          0                 9           1             8    2     1       0.8729117019E-05       8    2    1         0.2266800267E-03      0.1488678985E-02

    ------------------------------------------------
       NWT REQUIRED            9 OUTER ITERATIONS 
       AND A TOTAL OF         14 INNER ITERATIONS.
    ------------------------------------------------

 OUTPUT CONTROL FOR STRESS PERIOD    3   TIME STEP   10
    PRINT BUDGET
    SAVE BUDGET
 UBUDSV SAVING "         STORAGE" ON UNIT102 AT TIME STEP    10, STRESS PERIOD    3
 UBUDSV SAVING "   CONSTANT HEAD" ON UNIT102 AT TIME STEP    10, STRESS PERIOD    3
 UBUDSV SAVING "FLOW RIGHT FACE " ON UNIT102 AT TIME STEP    10, STRESS PERIOD    3
 UBUDSV SAVING "FLOW FRONT FACE " ON UNIT102 AT TIME STEP    10, STRESS PERIOD    3

  HEAD DEP BOUNDS   PERIOD    3   STEP    10
 BOUNDARY      1   LAYER   1   ROW    13   COL     1   RATE   -0.289646    
 BOUNDARY      2   LAYER   1   ROW    14   COL     9   RATE    0.280791    



 STREAM LISTING     PERIOD      3   STEP       10

 LAYER ROW COL. STREAM  RCH.  FLOW INTO     FLOW TO   FLOW OUT OF   OVRLND.     DIRECT     STREAM       STREAM     STREAM     STREAM   STREAMBED  STREAMBED
                SEG.NO.  NO.  STRM. RCH.    AQUIFER    STRM. RCH.    RUNOFF     PRECIP       ET          HEAD       DEPTH      WIDTH   CONDCTNC.   GRADIENT

   1    1    1     1     1    2.2000E+01  2.3088E-01   2.1769E+01  0.000E+00  0.000E+00  0.000E+00  1.09418E+03  1.132E+00  1.242E+01  5.588E-02  1.377E+00
   1    2    2     1     2    2.1769E+01  3.5689E-01   2.1412E+01  0.000E+00  0.000E+00  0.000E+00  1.08919E+03  1.127E+00  1.235E+01  8.648E-02  1.376E+00
   1    3    3     1     3    2.1412E+01  3.0372E-01   2.1109E+01  0.000E+00  0.000E+00  0.000E+00  1.08354E+03  1.121E+00  1.228E+01  7.369E-02  1.374E+00
   1    3    4     1     4    2.1109E+01  2.7914E-01   2.0829E+01  0.000E+00  0.000E+00  0.000E+00  1.07852E+03  1.117E+00  1.222E+01  6.781E-02  1.372E+00
   1    4    5     2     1    1.8829E+01  3.1306E-01   1.8516E+01  0.000E+00  0.000E+00  0.000E+00  1.07295E+03  1.014E+00  1.200E+01  7.800E-02  1.338E+00
   1    5    6     2     2    1.8516E+01  2.4027E-01   1.8276E+01  0.000E+00  0.000E+00  0.000E+00  1.06751E+03  1.005E+00  1.200E+01  6.000E-02  1.335E+00
   1    6    6     2     3    1.8276E+01  2.3980E-01   1.8036E+01  0.000E+00  0.000E+00  0.000E+00  1.06279E+03  9.967E-01  1.200E+01  6.000E-02  1.332E+00
   1    7    6     2     4    1.8036E+01  2.3933E-01   1.7797E+01  0.000E+00  0.000E+00  0.000E+00  1.05806E+03  9.888E-01  1.200E+01  6.000E-02  1.330E+00
   1    8    6     2     5    1.7797E+01  2.3885E-01   1.7558E+01  0.000E+00  0.000E+00  0.000E+00  1.05334E+03  9.808E-01  1.200E+01  6.000E-02  1.327E+00
   1    3    5     3     1    2.0000E+00  2.8252E-01   1.7175E+00  0.000E+00  0.000E+00  0.000E+00  1.07555E+03  1.909E+00  9.636E+00  7.227E-02  1.955E+00
   1    3    6     3     2    1.7175E+00  2.4905E-01   1.4684E+00  0.000E+00  0.000E+00  0.000E+00  1.07264E+03  1.727E+00  8.909E+00  6.682E-02  1.864E+00
   1    3    7     3     3    1.4684E+00  1.9718E-01   1.2712E+00  0.000E+00  0.000E+00  0.000E+00  1.06987E+03  1.555E+00  8.218E+00  5.547E-02  1.777E+00
   1    4    8     3     4    1.2712E+00  2.2567E-01   1.0456E+00  0.000E+00  0.000E+00  0.000E+00  1.06682E+03  1.364E+00  7.455E+00  6.709E-02  1.682E+00
   1    5    8     3     5    1.0456E+00  1.5790E-01   8.8768E-01  0.000E+00  0.000E+00  0.000E+00  1.06362E+03  1.164E+00  6.655E+00  4.991E-02  1.582E+00
   1    6    8     3     6    8.8768E-01  5.5980E-02   8.3170E-01  0.000E+00  0.000E+00  0.000E+00  1.06158E+03  1.036E+00  6.145E+00  1.844E-02  1.518E+00
   1    5   10     4     1    1.0000E+01  9.0919E-02   9.9091E+00  0.000E+00  0.000E+00  0.000E+00  1.07836E+03  6.368E-01  1.000E+01  2.500E-02  1.212E+00
   1    5    9     4     2    9.9091E+00  1.8158E-01   9.7275E+00  0.000E+00  0.000E+00  0.000E+00  1.07154E+03  6.315E-01  1.000E+01  5.000E-02  1.211E+00
   1    6    8     4     3    9.7275E+00  1.2689E-01   9.6006E+00  0.000E+00  0.000E+00  0.000E+00  1.06381E+03  6.256E-01  1.000E+01  3.500E-02  1.209E+00
   1    6    8     5     1    1.0432E+01  2.2686E-01   1.0205E+01  0.000E+00  0.000E+00  0.000E+00  1.05868E+03  6.790E-01  1.542E+01  6.166E-02  1.226E+00
   1    7    7     5     2    1.0205E+01  2.7894E-01   9.9265E+00  0.000E+00  0.000E+00  0.000E+00  1.05417E+03  6.732E-01  1.519E+01  7.594E-02  1.224E+00
   1    8    7     5     3    9.9265E+00  1.9221E-01   9.7343E+00  0.000E+00  0.000E+00  0.000E+00  1.04992E+03  6.676E-01  1.497E+01  5.241E-02  1.223E+00
   1    8    6     5     4    9.7343E+00  1.3577E-01   9.5985E+00  0.000E+00  0.000E+00  0.000E+00  1.04691E+03  6.637E-01  1.482E+01  3.706E-02  1.221E+00
   1    9    6     6     1    2.7157E+01  2.5677E-01   2.6900E+01  0.000E+00  0.000E+00  0.000E+00  1.04401E+03  1.280E+00  1.200E+01  6.000E-02  1.427E+00
   1   10    7     6     2    2.6900E+01  2.5634E-01   2.6643E+01  0.000E+00  0.000E+00  0.000E+00  1.03945E+03  1.272E+00  1.200E+01  6.000E-02  1.424E+00
   1   11    7     6     3    2.6643E+01  2.5590E-01   2.6388E+01  0.000E+00  0.000E+00  0.000E+00  1.03490E+03  1.265E+00  1.200E+01  6.000E-02  1.422E+00
   1   12    7     6     4    2.6388E+01  2.5546E-01   2.6132E+01  0.000E+00  0.000E+00  0.000E+00  1.03035E+03  1.258E+00  1.200E+01  6.000E-02  1.419E+00
   1   13    7     6     5    2.6132E+01 -1.7948E-02   2.6150E+01  0.000E+00  0.000E+00  0.000E+00  1.02716E+03  1.254E+00  1.200E+01  2.400E-01 -2.493E-02
   1   14    9     7     1    1.5000E+02  1.2628E+00   1.4874E+02  0.000E+00  0.000E+00  0.000E+00  1.03987E+03  2.288E+00  5.530E+01  5.593E-01  7.526E-01
   1   13    8     7     2    1.4874E+02  1.7433E+00   1.4699E+02  0.000E+00  0.000E+00  0.000E+00  1.03478E+03  2.280E+00  5.526E+01  6.148E-01  9.452E-01
   1   13    7     7     3    1.4699E+02  1.3700E+00   1.4562E+02  0.000E+00  0.000E+00  0.000E+00  1.02969E+03  2.272E+00  5.522E+01  5.585E-01  8.176E-01
   1   13    6     8     1    1.7177E+02  8.2524E-01   1.7095E+02  0.000E+00  0.000E+00  0.000E+00  1.02484E+03  2.961E+00  4.294E+01  4.375E-01  6.287E-01
   1   13    5     8     2    1.7095E+02  7.7874E-02   1.7087E+02  0.000E+00  0.000E+00  0.000E+00  1.01858E+03  2.958E+00  4.289E+01  4.371E-01  5.939E-02
   1   13    4     8     3    1.7087E+02 -2.7839E+00   1.7365E+02  0.000E+00  0.000E+00  0.000E+00  1.01234E+03  2.967E+00  4.302E+01  4.384E+00 -2.117E-01
   1   13    3     8     4    1.7365E+02 -3.8064E+00   1.7746E+02  0.000E+00  0.000E+00  0.000E+00  1.00611E+03  2.988E+00  4.333E+01  4.415E+00 -2.874E-01
   1   13    2     8     5    1.7746E+02 -2.6456E+00   1.8011E+02  0.000E+00  0.000E+00  0.000E+00  9.99883E+02  3.009E+00  4.362E+01  4.445E+00 -1.984E-01
   1   13    1     8     6    1.8011E+02 -1.9412E+00   1.8205E+02  0.000E+00  0.000E+00  0.000E+00  9.94898E+02  3.023E+00  4.383E+01  2.680E+00 -2.414E-01
   1    6    8     9     1    0.0000E+00  0.0000E+00   0.0000E+00  0.000E+00  0.000E+00  0.000E+00  1.07850E+03  0.000E+00  4.000E+00  0.000E+00  1.000E+00



 UBDSV3 SAVING "     NETRECHARGE" ON UNIT 100 AT TIME STEP    10, STRESS PERIOD   3
 UBDSV3 SAVING "    NETDISCHARGE" ON UNIT 101 AT TIME STEP    10, STRESS PERIOD   3
 UBDSV3 SAVING "           GW ET" ON UNIT  61 AT TIME STEP    10, STRESS PERIOD   3
 UBDSV3 SAVING "    UZF RECHARGE" ON UNIT  61 AT TIME STEP    10, STRESS PERIOD   3
 UBDSV3 SAVING " SURFACE LEAKAGE" ON UNIT  61 AT TIME STEP    10, STRESS PERIOD   3
 UBDSV3 SAVING "       HORT+DUNN" ON UNIT  61 AT TIME STEP    10, STRESS PERIOD   3
 UBDSV3 SAVING "  STORAGE CHANGE" ON UNIT  61 AT TIME STEP    10, STRESS PERIOD   3


UNSATURATED ZONE PACKAGE VOLUMETRIC BUDGET FOR  TIME STEP    10 STRESS PERIOD    3
  ------------------------------------------------------------------------------



     CUMULATIVE VOLUMES      L**3       RATES FOR THIS TIME STEP      L**3/T
     ------------------                 ------------------------

           IN:                                      IN:
           ---                                      ---
        INFILTRATION =      183082.4255          INFILTRATION =       0.0000E+00

          OUT:                                     OUT:
          ----                                     ----
              UZF ET =     1016153.9232                UZF ET =           0.2900
        UZF RECHARGE =    96405887.1929          UZF RECHARGE =          27.0119

            IN - OUT =   -97238958.6907              IN - OUT =         -27.3019

          STORAGE:                                 STORAGE:
          --------                                 --------
      STORAGE CHANGE =   -97234687.9161        STORAGE CHANGE =         -27.3018

 PERCENT DISCREPANCY IS DIFFERENCE BETWEEN IN-OUT MINUS CHANGE IN STORAGE
 DIVIDED BY THE AVERAGE OF IN AND OUT TIMES 100

 PERCENT DISCREPANCY =          -0.00     PERCENT DISCREPANCY =          -0.00






1
  VOLUMETRIC BUDGET FOR ENTIRE MODEL AT END OF TIME STEP   10, STRESS PERIOD   3
  ------------------------------------------------------------------------------

     CUMULATIVE VOLUMES      L**3       RATES FOR THIS TIME STEP      L**3/T
     ------------------                 ------------------------

           IN:                                      IN:
           ---                                      ---
             STORAGE     =      998584.1875               STORAGE     =       3.3266E-02
       CONSTANT HEAD     =           0.0000         CONSTANT HEAD     =           0.0000
               WELLS     =           0.0000                 WELLS     =           0.0000
     HEAD DEP BOUNDS     =     1015829.2500       HEAD DEP BOUNDS     =           0.2808
      STREAM LEAKAGE     =    37583568.0000        STREAM LEAKAGE     =          11.1471
        UZF RECHARGE     =    96405880.0000          UZF RECHARGE     =          27.0119
               GW ET     =           0.0000                 GW ET     =           0.0000
     SURFACE LEAKAGE     =           0.0000       SURFACE LEAKAGE     =           0.0000
    SUPPLEMENTARY WELLS  =           0.0000      SUPPLEMENTARY WELLS  =           0.0000

                TOTAL IN =   136003856.0000                  TOTAL IN =          38.4730

          OUT:                                     OUT:
          ----                                     ----
             STORAGE     =    94500944.0000               STORAGE     =          26.9833
       CONSTANT HEAD     =           0.0000         CONSTANT HEAD     =           0.0000
               WELLS     =           0.0000                 WELLS     =           0.0000
     HEAD DEP BOUNDS     =     1031246.1875       HEAD DEP BOUNDS     =           0.2896
      STREAM LEAKAGE     =    40270380.0000        STREAM LEAKAGE     =          11.1950
        UZF RECHARGE     =           0.0000          UZF RECHARGE     =           0.0000
               GW ET     =      151085.3438                 GW ET     =       3.0357E-10
     SURFACE LEAKAGE     =           0.0000       SURFACE LEAKAGE     =           0.0000
    SUPPLEMENTARY WELLS  =       31277.0352      SUPPLEMENTARY WELLS  =           0.0000

               TOTAL OUT =   135984944.0000                 TOTAL OUT =          38.4679

                IN - OUT =       18912.0000                  IN - OUT =       5.0697E-03

     PERCENT DISCREPANCY =           0.01         PERCENT DISCREPANCY =           0.01






         TIME SUMMARY AT END OF TIME STEP   10 IN STRESS PERIOD    3
                    SECONDS     MINUTES      HOURS       DAYS        YEARS
                    -----------------------------------------------------------
   TIME STEP LENGTH  87600.      1460.0      24.333      1.0139     2.77588E-03
 STRESS PERIOD TIME 8.76000E+05  14600.      243.33      10.139     2.77588E-02
         TOTAL TIME 3.59040E+06  59840.      997.33      41.556     0.11377    
1
 
 SOLVING FOR HEAD 
                                                   Max.-Head-Change                         Max.-Flux-Residual
  Residual-Control   Outer-Iter.   Inner-Iter.     Column Row Layer    Maximum-Head-Change  Column Row Layer    Maximum-Flux-Residual          L2-NORM 
          0                 1           2             2    2     1       0.6997011111E-02       2    2    1         0.3646567203E+00      0.1659807509E+01
          0                 2           2             8    2     1       0.2354049468E-02       2    2    1         0.6337741787E-01      0.4753246530E+00
          0                 3           2             8    2     1       0.1058141137E-02       8    2    1         0.2747788358E-01      0.1891267286E+00
          0                 4           2             8    2     1       0.4756318022E-03       8    2    1         0.1235125738E-01      0.8296335692E-01
          0                 5           2             8    2     1       0.2137949463E-03       8    2    1         0.5551857747E-02      0.3701770609E-01
          0                 6           1             8    2     1       0.9609996759E-04       8    2    1         0.2495541223E-02      0.1656080992E-01
          0                 7           1             8    2     1       0.4319647345E-04       8    2    1         0.1121735384E-02      0.7412153222E-02
          0                 8           1             8    2     1       0.1941657324E-04       8    2    1         0.5042145076E-03      0.3317825475E-02
          0                 9           1             8    2     1       0.8727625607E-05       8    2    1         0.2266415284E-03      0.1485208091E-02

    ------------------------------------------------
       NWT REQUIRED            9 OUTER ITERATIONS 
       AND A TOTAL OF         14 INNER ITERATIONS.
    ------------------------------------------------

 NO OUTPUT CONTROL FOR STRESS PERIOD    3   TIME STEP   11
 
 SOLVING FOR HEAD 
                                                   Max.-Head-Change                         Max.-Flux-Residual
  Residual-Control   Outer-Iter.   Inner-Iter.     Column Row Layer    Maximum-Head-Change  Column Row Layer    Maximum-Flux-Residual          L2-NORM 
          0                 1           2             2    2     1       0.6968793569E-02       2    2    1         0.3631695335E+00      0.1653321568E+01
          0                 2           2             8    2     1       0.2353713399E-02       2    2    1         0.6312349068E-01      0.4740719901E+00
          0                 3           2             8    2     1       0.1057988821E-02       8    2    1         0.2747395495E-01      0.1886704989E+00
          0                 4           2             8    2     1       0.4755627633E-03       8    2    1         0.1234947679E-01      0.8276519567E-01
          0                 5           2             8    2     1       0.2137636515E-03       8    2    1         0.5551050666E-02      0.3692971319E-01
          0                 6           1             8    2     1       0.9608578104E-04       8    2    1         0.2495175376E-02      0.1652166069E-01
          0                 7           1             8    2     1       0.4319004185E-04       8    2    1         0.1121569533E-02      0.7395064170E-02
          0                 8           1             8    2     1       0.1941365720E-04       8    2    1         0.5041393152E-03      0.3310642670E-02
          0                 9           1             8    2     1       0.8726303520E-05       8    2    1         0.2266074384E-03      0.1481764270E-02

    ------------------------------------------------
       NWT REQUIRED            9 OUTER ITERATIONS 
       AND A TOTAL OF         14 INNER ITERATIONS.
    ------------------------------------------------

 NO OUTPUT CONTROL FOR STRESS PERIOD    3   TIME STEP   12
 
 SOLVING FOR HEAD 
                                                   Max.-Head-Change                         Max.-Flux-Residual
  Residual-Control   Outer-Iter.   Inner-Iter.     Column Row Layer    Maximum-Head-Change  Column Row Layer    Maximum-Flux-Residual          L2-NORM 
          0                 1           2             2    2     1       0.6941072379E-02       2    2    1         0.3617085338E+00      0.1647606047E+01
          0                 2           2             8    2     1       0.2353373644E-02       2    2    1         0.6287402742E-01      0.4729180018E+00
          0                 3           2             8    2     1       0.1057834784E-02       8    2    1         0.2746998297E-01      0.1882221131E+00
          0                 4           2             8    2     1       0.4754929212E-03       8    2    1         0.1234767596E-01      0.8256833500E-01
          0                 5           2             8    2     1       0.2137319829E-03       8    2    1         0.5550234151E-02      0.3684221466E-01
          0                 6           1             8    2     1       0.9607142041E-04       8    2    1         0.2494805133E-02      0.1648270719E-01
          0                 7           1             8    2     1       0.4318352996E-04       8    2    1         0.1121401644E-02      0.7377385404E-02
          0                 8           1             8    2     1       0.1941070389E-04       8    2    1         0.5040631780E-03      0.3302346725E-02
          0                 9           1             8    2     1       0.8724963925E-05       8    2    1         0.2265729066E-03      0.1478315818E-02

    ------------------------------------------------
       NWT REQUIRED            9 OUTER ITERATIONS 
       AND A TOTAL OF         14 INNER ITERATIONS.
    ------------------------------------------------

 NO OUTPUT CONTROL FOR STRESS PERIOD    3   TIME STEP   13
 
 SOLVING FOR HEAD 
                                                   Max.-Head-Change                         Max.-Flux-Residual
  Residual-Control   Outer-Iter.   Inner-Iter.     Column Row Layer    Maximum-Head-Change  Column Row Layer    Maximum-Flux-Residual          L2-NORM 
          0                 1           2             2    2     1       0.6913923597E-02       2    2    1         0.3602777342E+00      0.1642799528E+01
          0                 2           2             8    2     1       0.2353030104E-02       2    2    1         0.6262971202E-01      0.4718125901E+00
          0                 3           2             8    2     1       0.1057679012E-02       8    2    1         0.2746596667E-01      0.1877785427E+00
          0                 4           2             8    2     1       0.4754222864E-03       8    2    1         0.1234585483E-01      0.8237292690E-01
          0                 5           2             8    2     1       0.2136999514E-03       8    2    1         0.5549408340E-02      0.3675530839E-01
          0                 6           1             8    2     1       0.9605689422E-04       8    2    1         0.2494430643E-02      0.1644402301E-01
          0                 7           1             8    2     1       0.4317694203E-04       8    2    1         0.1121231810E-02      0.7360160530E-02
          0                 8           1             8    2     1       0.1940771606E-04       8    2    1         0.5039861542E-03      0.3294677609E-02
          0                 9           1             8    2     1       0.8723608824E-05       8    2    1         0.2265379732E-03      0.1474900497E-02

    ------------------------------------------------
       NWT REQUIRED            9 OUTER ITERATIONS 
       AND A TOTAL OF         14 INNER ITERATIONS.
    ------------------------------------------------

 NO OUTPUT CONTROL FOR STRESS PERIOD    3   TIME STEP   14
 
 SOLVING FOR HEAD 
                                                   Max.-Head-Change                         Max.-Flux-Residual
  Residual-Control   Outer-Iter.   Inner-Iter.     Column Row Layer    Maximum-Head-Change  Column Row Layer    Maximum-Flux-Residual          L2-NORM 
          0                 1           2             2    2     1       0.6887246416E-02       2    2    1         0.3588718521E+00      0.1638354041E+01
          0                 2           2             8    2     1       0.2352682580E-02       2    2    1         0.6238963427E-01      0.4707337584E+00
          0                 3           2             8    2     1       0.1057521397E-02       8    2    1         0.2746190361E-01      0.1873391031E+00
          0                 4           2             8    2     1       0.4753507989E-03       8    2    1         0.1234401206E-01      0.8217892092E-01
          0                 5           2             8    2     1       0.2136675263E-03       8    2    1         0.5548572529E-02      0.3666898691E-01
          0                 6           1             8    2     1       0.9604218619E-04       8    2    1         0.2494051536E-02      0.1640559147E-01
          0                 7           1             8    2     1       0.4317027032E-04       8    2    1         0.1121059851E-02      0.7343049250E-02
          0                 8           1             8    2     1       0.1940468972E-04       8    2    1         0.5039081531E-03      0.3287057616E-02
          0                 9           1             8    2     1       0.8722235964E-05       8    2    1         0.2265025914E-03      0.1471507658E-02

    ------------------------------------------------
       NWT REQUIRED            9 OUTER ITERATIONS 
       AND A TOTAL OF         14 INNER ITERATIONS.
    ------------------------------------------------

 OUTPUT CONTROL FOR STRESS PERIOD    3   TIME STEP   15
    PRINT BUDGET
    PRINT HEAD FOR ALL LAYERS
    SAVE HEAD FOR ALL LAYERS
    SAVE BUDGET
 UBUDSV SAVING "         STORAGE" ON UNIT102 AT TIME STEP    15, STRESS PERIOD    3
 UBUDSV SAVING "   CONSTANT HEAD" ON UNIT102 AT TIME STEP    15, STRESS PERIOD    3
 UBUDSV SAVING "FLOW RIGHT FACE " ON UNIT102 AT TIME STEP    15, STRESS PERIOD    3
 UBUDSV SAVING "FLOW FRONT FACE " ON UNIT102 AT TIME STEP    15, STRESS PERIOD    3

  HEAD DEP BOUNDS   PERIOD    3   STEP    15
 BOUNDARY      1   LAYER   1   ROW    13   COL     1   RATE   -0.290055    
 BOUNDARY      2   LAYER   1   ROW    14   COL     9   RATE    0.280309    



 STREAM LISTING     PERIOD      3   STEP       15

 LAYER ROW COL. STREAM  RCH.  FLOW INTO     FLOW TO   FLOW OUT OF   OVRLND.     DIRECT     STREAM       STREAM     STREAM     STREAM   STREAMBED  STREAMBED
                SEG.NO.  NO.  STRM. RCH.    AQUIFER    STRM. RCH.    RUNOFF     PRECIP       ET          HEAD       DEPTH      WIDTH   CONDCTNC.   GRADIENT

   1    1    1     1     1    2.2000E+01  2.3088E-01   2.1769E+01  0.000E+00  0.000E+00  0.000E+00  1.09418E+03  1.132E+00  1.242E+01  5.588E-02  1.377E+00
   1    2    2     1     2    2.1769E+01  3.5689E-01   2.1412E+01  0.000E+00  0.000E+00  0.000E+00  1.08919E+03  1.127E+00  1.235E+01  8.648E-02  1.376E+00
   1    3    3     1     3    2.1412E+01  3.0372E-01   2.1109E+01  0.000E+00  0.000E+00  0.000E+00  1.08354E+03  1.121E+00  1.228E+01  7.369E-02  1.374E+00
   1    3    4     1     4    2.1109E+01  2.7914E-01   2.0829E+01  0.000E+00  0.000E+00  0.000E+00  1.07852E+03  1.117E+00  1.222E+01  6.781E-02  1.372E+00
   1    4    5     2     1    1.8829E+01  3.1306E-01   1.8516E+01  0.000E+00  0.000E+00  0.000E+00  1.07295E+03  1.014E+00  1.200E+01  7.800E-02  1.338E+00
   1    5    6     2     2    1.8516E+01  2.4027E-01   1.8276E+01  0.000E+00  0.000E+00  0.000E+00  1.06751E+03  1.005E+00  1.200E+01  6.000E-02  1.335E+00
   1    6    6     2     3    1.8276E+01  2.3980E-01   1.8036E+01  0.000E+00  0.000E+00  0.000E+00  1.06279E+03  9.967E-01  1.200E+01  6.000E-02  1.332E+00
   1    7    6     2     4    1.8036E+01  2.3933E-01   1.7797E+01  0.000E+00  0.000E+00  0.000E+00  1.05806E+03  9.888E-01  1.200E+01  6.000E-02  1.330E+00
   1    8    6     2     5    1.7797E+01  2.3885E-01   1.7558E+01  0.000E+00  0.000E+00  0.000E+00  1.05334E+03  9.808E-01  1.200E+01  6.000E-02  1.327E+00
   1    3    5     3     1    2.0000E+00  2.8252E-01   1.7175E+00  0.000E+00  0.000E+00  0.000E+00  1.07555E+03  1.909E+00  9.636E+00  7.227E-02  1.955E+00
   1    3    6     3     2    1.7175E+00  2.4905E-01   1.4684E+00  0.000E+00  0.000E+00  0.000E+00  1.07264E+03  1.727E+00  8.909E+00  6.682E-02  1.864E+00
   1    3    7     3     3    1.4684E+00  1.9718E-01   1.2712E+00  0.000E+00  0.000E+00  0.000E+00  1.06987E+03  1.555E+00  8.218E+00  5.547E-02  1.777E+00
   1    4    8     3     4    1.2712E+00  2.2567E-01   1.0456E+00  0.000E+00  0.000E+00  0.000E+00  1.06682E+03  1.364E+00  7.455E+00  6.709E-02  1.682E+00
   1    5    8     3     5    1.0456E+00  1.5790E-01   8.8768E-01  0.000E+00  0.000E+00  0.000E+00  1.06362E+03  1.164E+00  6.655E+00  4.991E-02  1.582E+00
   1    6    8     3     6    8.8768E-01  5.5980E-02   8.3170E-01  0.000E+00  0.000E+00  0.000E+00  1.06158E+03  1.036E+00  6.145E+00  1.844E-02  1.518E+00
   1    5   10     4     1    1.0000E+01  9.0919E-02   9.9091E+00  0.000E+00  0.000E+00  0.000E+00  1.07836E+03  6.368E-01  1.000E+01  2.500E-02  1.212E+00
   1    5    9     4     2    9.9091E+00  1.8158E-01   9.7275E+00  0.000E+00  0.000E+00  0.000E+00  1.07154E+03  6.315E-01  1.000E+01  5.000E-02  1.211E+00
   1    6    8     4     3    9.7275E+00  1.2689E-01   9.6006E+00  0.000E+00  0.000E+00  0.000E+00  1.06381E+03  6.256E-01  1.000E+01  3.500E-02  1.209E+00
   1    6    8     5     1    1.0432E+01  2.2686E-01   1.0205E+01  0.000E+00  0.000E+00  0.000E+00  1.05868E+03  6.790E-01  1.542E+01  6.166E-02  1.226E+00
   1    7    7     5     2    1.0205E+01  2.7894E-01   9.9265E+00  0.000E+00  0.000E+00  0.000E+00  1.05417E+03  6.732E-01  1.519E+01  7.594E-02  1.224E+00
   1    8    7     5     3    9.9265E+00  1.9221E-01   9.7343E+00  0.000E+00  0.000E+00  0.000E+00  1.04992E+03  6.676E-01  1.497E+01  5.241E-02  1.223E+00
   1    8    6     5     4    9.7343E+00  1.3577E-01   9.5985E+00  0.000E+00  0.000E+00  0.000E+00  1.04691E+03  6.637E-01  1.482E+01  3.706E-02  1.221E+00
   1    9    6     6     1    2.7157E+01  2.5677E-01   2.6900E+01  0.000E+00  0.000E+00  0.000E+00  1.04401E+03  1.280E+00  1.200E+01  6.000E-02  1.427E+00
   1   10    7     6     2    2.6900E+01  2.5634E-01   2.6643E+01  0.000E+00  0.000E+00  0.000E+00  1.03945E+03  1.272E+00  1.200E+01  6.000E-02  1.424E+00
   1   11    7     6     3    2.6643E+01  2.5590E-01   2.6388E+01  0.000E+00  0.000E+00  0.000E+00  1.03490E+03  1.265E+00  1.200E+01  6.000E-02  1.422E+00
   1   12    7     6     4    2.6388E+01  2.5546E-01   2.6132E+01  0.000E+00  0.000E+00  0.000E+00  1.03035E+03  1.258E+00  1.200E+01  6.000E-02  1.419E+00
   1   13    7     6     5    2.6132E+01 -2.4643E-02   2.6157E+01  0.000E+00  0.000E+00  0.000E+00  1.02716E+03  1.254E+00  1.200E+01  2.400E-01 -3.423E-02
   1   14    9     7     1    1.5000E+02  1.2557E+00   1.4874E+02  0.000E+00  0.000E+00  0.000E+00  1.03987E+03  2.288E+00  5.530E+01  5.593E-01  7.484E-01
   1   13    8     7     2    1.4874E+02  1.7322E+00   1.4701E+02  0.000E+00  0.000E+00  0.000E+00  1.03478E+03  2.280E+00  5.526E+01  6.148E-01  9.392E-01
   1   13    7     7     3    1.4701E+02  1.3544E+00   1.4566E+02  0.000E+00  0.000E+00  0.000E+00  1.02969E+03  2.272E+00  5.522E+01  5.585E-01  8.083E-01
   1   13    6     8     1    1.7181E+02  8.1294E-01   1.7100E+02  0.000E+00  0.000E+00  0.000E+00  1.02484E+03  2.961E+00  4.294E+01  4.376E-01  6.193E-01
   1   13    5     8     2    1.7100E+02  6.9765E-02   1.7093E+02  0.000E+00  0.000E+00  0.000E+00  1.01858E+03  2.958E+00  4.290E+01  4.371E-01  5.320E-02
   1   13    4     8     3    1.7093E+02 -2.8352E+00   1.7377E+02  0.000E+00  0.000E+00  0.000E+00  1.01234E+03  2.967E+00  4.303E+01  4.385E+00 -2.155E-01
   1   13    3     8     4    1.7377E+02 -3.8533E+00   1.7762E+02  0.000E+00  0.000E+00  0.000E+00  1.00611E+03  2.989E+00  4.334E+01  4.416E+00 -2.908E-01
   1   13    2     8     5    1.7762E+02 -2.6975E+00   1.8032E+02  0.000E+00  0.000E+00  0.000E+00  9.99885E+02  3.010E+00  4.364E+01  4.447E+00 -2.022E-01
   1   13    1     8     6    1.8032E+02 -1.9672E+00   1.8228E+02  0.000E+00  0.000E+00  0.000E+00  9.94899E+02  3.024E+00  4.385E+01  2.681E+00 -2.446E-01
   1    6    8     9     1    0.0000E+00  0.0000E+00   0.0000E+00  0.000E+00  0.000E+00  0.000E+00  1.07850E+03  0.000E+00  4.000E+00  0.000E+00  1.000E+00



 UBDSV3 SAVING "     NETRECHARGE" ON UNIT 100 AT TIME STEP    15, STRESS PERIOD   3
 UBDSV3 SAVING "    NETDISCHARGE" ON UNIT 101 AT TIME STEP    15, STRESS PERIOD   3
 UBDSV3 SAVING "           GW ET" ON UNIT  61 AT TIME STEP    15, STRESS PERIOD   3
 UBDSV3 SAVING "    UZF RECHARGE" ON UNIT  61 AT TIME STEP    15, STRESS PERIOD   3
 UBDSV3 SAVING " SURFACE LEAKAGE" ON UNIT  61 AT TIME STEP    15, STRESS PERIOD   3
 UBDSV3 SAVING "       HORT+DUNN" ON UNIT  61 AT TIME STEP    15, STRESS PERIOD   3
 UBDSV3 SAVING "  STORAGE CHANGE" ON UNIT  61 AT TIME STEP    15, STRESS PERIOD   3


UNSATURATED ZONE PACKAGE VOLUMETRIC BUDGET FOR  TIME STEP    15 STRESS PERIOD    3
  ------------------------------------------------------------------------------



     CUMULATIVE VOLUMES      L**3       RATES FOR THIS TIME STEP      L**3/T
     ------------------                 ------------------------

           IN:                                      IN:
           ---                                      ---
        INFILTRATION =      183082.4255          INFILTRATION =       0.0000E+00

          OUT:                                     OUT:
          ----                                     ----
              UZF ET =     1143173.9232                UZF ET =           0.2900
        UZF RECHARGE =   108194158.3936          UZF RECHARGE =          26.8559

            IN - OUT =  -109154249.8913              IN - OUT =         -27.1459

          STORAGE:                                 STORAGE:
          --------                                 --------
      STORAGE CHANGE =  -109149938.6226        STORAGE CHANGE =         -27.1458

 PERCENT DISCREPANCY IS DIFFERENCE BETWEEN IN-OUT MINUS CHANGE IN STORAGE
 DIVIDED BY THE AVERAGE OF IN AND OUT TIMES 100

 PERCENT DISCREPANCY =          -0.00     PERCENT DISCREPANCY =          -0.00






1
              HEAD IN LAYER   1 AT END OF TIME STEP    15 IN STRESS PERIOD    3
  -----------------------------------------------------------------------------

           1       2       3       4       5       6       7       8       9      10
 ...................................................................................
   1  1034.12 1033.04 6999.00 6999.00 6999.00 6999.00 6999.00 6999.00 6999.00 6999.00
   2  1033.40 1032.01 1031.33 6999.00 6999.00 1032.80 1033.00 1033.02 6999.00 6999.00
   3  6999.00 1031.22 1030.80 1030.56 1031.20 1031.95 1032.59 1032.64 6999.00 6999.00
   4  1030.46 1030.47 1030.25 1029.94 1030.05 1030.16 1030.94 1032.20 1032.02 6999.00
   5  1029.98 1029.65 1029.46 1029.23 1029.37 1029.68 1030.02 1030.67 1031.37 1031.89
   6  1029.36 1028.83 1028.61 1028.44 1028.60 1029.06 1029.52 1030.24 1031.01 1031.97
   7  1028.81 1027.78 1027.57 1027.46 1027.67 1028.19 1028.77 1029.49 1030.34 6999.00
   8  6999.00 1026.26 1026.24 1026.24 1026.49 1027.06 1027.59 1028.75 1029.35 6999.00
   9  6999.00 1024.02 1024.29 1024.59 1024.98 1025.68 1026.25 1027.31 1028.45 6999.00
  10  6999.00 1020.94 1021.66 1022.55 1023.34 1024.38 1025.31 1026.60 1028.24 1028.86
  11  6999.00 1016.17 1017.50 1019.94 1021.59 1023.34 1024.90 1026.87 1029.08 6999.00
  12  1002.34 1008.40 1012.39 1016.40 1019.72 1022.72 1025.23 1028.75 1031.79 6999.00
  13   995.63 1000.49 1006.99 1012.99 1018.42 1022.98 1027.27 1031.96 1034.82 6999.00
  14  6999.00 1006.18 1009.23 1013.88 1018.65 1023.04 1027.95 1033.43 1037.62 6999.00
  15  6999.00 6999.00 1012.88 1015.60 1019.06 1022.08 6999.00 6999.00 6999.00 6999.00

 HEAD WILL BE SAVED ON UNIT   62 AT END OF TIME STEP   15, STRESS PERIOD    3
1
  VOLUMETRIC BUDGET FOR ENTIRE MODEL AT END OF TIME STEP   15, STRESS PERIOD   3
  ------------------------------------------------------------------------------

     CUMULATIVE VOLUMES      L**3       RATES FOR THIS TIME STEP      L**3/T
     ------------------                 ------------------------

           IN:                                      IN:
           ---                                      ---
             STORAGE     =     1005793.9375               STORAGE     =       5.8948E-03
       CONSTANT HEAD     =           0.0000         CONSTANT HEAD     =           0.0000
               WELLS     =           0.0000                 WELLS     =           0.0000
     HEAD DEP BOUNDS     =     1138688.6250       HEAD DEP BOUNDS     =           0.2803
      STREAM LEAKAGE     =    42451648.0000        STREAM LEAKAGE     =          11.0930
        UZF RECHARGE     =   108194152.0000          UZF RECHARGE     =          26.8559
               GW ET     =           0.0000                 GW ET     =           0.0000
     SURFACE LEAKAGE     =           0.0000       SURFACE LEAKAGE     =           0.0000
    SUPPLEMENTARY WELLS  =           0.0000      SUPPLEMENTARY WELLS  =           0.0000

                TOTAL IN =   152790288.0000                  TOTAL IN =          38.2351

          OUT:                                     OUT:
          ----                                     ----
             STORAGE     =   106204296.0000               STORAGE     =          26.5621
       CONSTANT HEAD     =           0.0000         CONSTANT HEAD     =           0.0000
               WELLS     =           0.0000                 WELLS     =           0.0000
     HEAD DEP BOUNDS     =     1158225.0000       HEAD DEP BOUNDS     =           0.2901
      STREAM LEAKAGE     =    45224264.0000        STREAM LEAKAGE     =          11.3779
        UZF RECHARGE     =           0.0000          UZF RECHARGE     =           0.0000
               GW ET     =      151085.3438                 GW ET     =       3.0357E-10
     SURFACE LEAKAGE     =           0.0000       SURFACE LEAKAGE     =           0.0000
    SUPPLEMENTARY WELLS  =       31277.0352      SUPPLEMENTARY WELLS  =           0.0000

               TOTAL OUT =   152769152.0000                 TOTAL OUT =          38.2301

                IN - OUT =       21136.0000                  IN - OUT =       5.0011E-03

     PERCENT DISCREPANCY =           0.01         PERCENT DISCREPANCY =           0.01






         TIME SUMMARY AT END OF TIME STEP   15 IN STRESS PERIOD    3
                    SECONDS     MINUTES      HOURS       DAYS        YEARS
                    -----------------------------------------------------------
   TIME STEP LENGTH  87600.      1460.0      24.333      1.0139     2.77588E-03
 STRESS PERIOD TIME 1.31400E+06  21900.      365.00      15.208     4.16381E-02
         TOTAL TIME 4.02840E+06  67140.      1119.0      46.625     0.12765    
1
 
 SOLVING FOR HEAD 
                                                   Max.-Head-Change                         Max.-Flux-Residual
  Residual-Control   Outer-Iter.   Inner-Iter.     Column Row Layer    Maximum-Head-Change  Column Row Layer    Maximum-Flux-Residual          L2-NORM 
          0                 1           2             2    2     1       0.6861205303E-02       2    2    1         0.3574994707E+00      0.1634224072E+01
          0                 2           2             8    2     1       0.2352331069E-02       2    2    1         0.6215528273E-01      0.4696786641E+00
          0                 3           2             8    2     1       0.1057361981E-02       8    2    1         0.2745779396E-01      0.1869050010E+00
          0                 4           2             8    2     1       0.4752784983E-03       8    2    1         0.1234214827E-01      0.8198819497E-01
          0                 5           2             8    2     1       0.2136347345E-03       8    2    1         0.5547727232E-02      0.3658466962E-01
          0                 6           1             8    2     1       0.9602731283E-04       8    2    1         0.2493668146E-02      0.1636828959E-01
          0                 7           1             8    2     1       0.4316352432E-04       8    2    1         0.1120885956E-02      0.7326544369E-02
          0                 8           1             8    2     1       0.1940162936E-04       8    2    1         0.5038292719E-03      0.3279776555E-02
          0                 9           1             8    2     1       0.8720848098E-05       8    2    1         0.2264668137E-03      0.1468323595E-02

    ------------------------------------------------
       NWT REQUIRED            9 OUTER ITERATIONS 
       AND A TOTAL OF         14 INNER ITERATIONS.
    ------------------------------------------------

 NO OUTPUT CONTROL FOR STRESS PERIOD    3   TIME STEP   16
 
 SOLVING FOR HEAD 
                                                   Max.-Head-Change                         Max.-Flux-Residual
  Residual-Control   Outer-Iter.   Inner-Iter.     Column Row Layer    Maximum-Head-Change  Column Row Layer    Maximum-Flux-Residual          L2-NORM 
          0                 1           2             2    2     1       0.6835611268E-02       2    2    1         0.3561507129E+00      0.1630364232E+01
          0                 2           2             8    2     1       0.2351975461E-02       2    2    1         0.6192494830E-01      0.4686494746E+00
          0                 3           2             8    2     1       0.1057200697E-02       8    2    1         0.2745363636E-01      0.1864749156E+00
          0                 4           2             8    2     1       0.4752053453E-03       8    2    1         0.1234026258E-01      0.8179724517E-01
          0                 5           2             8    2     1       0.2136015540E-03       8    2    1         0.5546871947E-02      0.3649967719E-01
          0                 6           1             8    2     1       0.9601226265E-04       8    2    1         0.2493280206E-02      0.1633043438E-01
          0                 7           1             8    2     1       0.4315669704E-04       8    2    1         0.1120709986E-02      0.7309686451E-02
          0                 8           1             8    2     1       0.1939853299E-04       8    2    1         0.5037494568E-03      0.3272244809E-02
          0                 9           1             8    2     1       0.8719443224E-05       8    2    1         0.2264306058E-03      0.1464930234E-02

    ------------------------------------------------
       NWT REQUIRED            9 OUTER ITERATIONS 
       AND A TOTAL OF         14 INNER ITERATIONS.
    ------------------------------------------------

 NO OUTPUT CONTROL FOR STRESS PERIOD    3   TIME STEP   17
 
 SOLVING FOR HEAD 
                                                   Max.-Head-Change                         Max.-Flux-Residual
  Residual-Control   Outer-Iter.   Inner-Iter.     Column Row Layer    Maximum-Head-Change  Column Row Layer    Maximum-Flux-Residual          L2-NORM 
          0                 1           2             2    2     1       0.6810541481E-02       2    2    1         0.3548295934E+00      0.1626731435E+01
          0                 2           2             8    2     1       0.2351565740E-02       2    2    1         0.6169933077E-01      0.4676381487E+00
          0                 3           2             8    2     1       0.1057015097E-02       8    2    1         0.2744884716E-01      0.1860477448E+00
          0                 4           2             8    2     1       0.4751212665E-03       8    2    1         0.1233809310E-01      0.8160784028E-01
          0                 5           2             8    2     1       0.2135634643E-03       8    2    1         0.5545889151E-02      0.3641529598E-01
          0                 6           1             8    2     1       0.9599500674E-04       8    2    1         0.2492834976E-02      0.1629285311E-01
          0                 7           1             8    2     1       0.4314887932E-04       8    2    1         0.1120508284E-02      0.7292944072E-02
          0                 8           1             8    2     1       0.1939499116E-04       8    2    1         0.5036580783E-03      0.3264787107E-02
          0                 9           1             8    2     1       0.8717838512E-05       8    2    1         0.2263892058E-03      0.1461607690E-02

    ------------------------------------------------
       NWT REQUIRED            9 OUTER ITERATIONS 
       AND A TOTAL OF         14 INNER ITERATIONS.
    ------------------------------------------------

 NO OUTPUT CONTROL FOR STRESS PERIOD    3   TIME STEP   18
 
 SOLVING FOR HEAD 
                                                   Max.-Head-Change                         Max.-Flux-Residual
  Residual-Control   Outer-Iter.   Inner-Iter.     Column Row Layer    Maximum-Head-Change  Column Row Layer    Maximum-Flux-Residual          L2-NORM 
          0                 1           2             2    2     1       0.6785896372E-02       2    2    1         0.3535309150E+00      0.1623301369E+01
          0                 2           2             8    2     1       0.2351201878E-02       2    2    1         0.6147752896E-01      0.4666471709E+00
          0                 3           2             8    2     1       0.1056850045E-02       8    2    1         0.2744459294E-01      0.1856255663E+00
          0                 4           2             8    2     1       0.4750463952E-03       8    2    1         0.1233616333E-01      0.8142022473E-01
          0                 5           2             8    2     1       0.2135295002E-03       8    2    1         0.5545013757E-02      0.3633172320E-01
          0                 6           1             8    2     1       0.9597959940E-04       8    2    1         0.2492437865E-02      0.1625562385E-01
          0                 7           1             8    2     1       0.4314188972E-04       8    2    1         0.1120328132E-02      0.7276359891E-02
          0                 8           1             8    2     1       0.1939182000E-04       8    2    1         0.5035763475E-03      0.3257399078E-02
          0                 9           1             8    2     1       0.8716399873E-05       8    2    1         0.2263521291E-03      0.1458315202E-02

    ------------------------------------------------
       NWT REQUIRED            9 OUTER ITERATIONS 
       AND A TOTAL OF         14 INNER ITERATIONS.
    ------------------------------------------------

 NO OUTPUT CONTROL FOR STRESS PERIOD    3   TIME STEP   19
 
 SOLVING FOR HEAD 
                                                   Max.-Head-Change                         Max.-Flux-Residual
  Residual-Control   Outer-Iter.   Inner-Iter.     Column Row Layer    Maximum-Head-Change  Column Row Layer    Maximum-Flux-Residual          L2-NORM 
          0                 1           2             2    2     1       0.6761753294E-02       2    2    1         0.3522587212E+00      0.1620052263E+01
          0                 2           2             8    2     1       0.2350833420E-02       2    2    1         0.6126024236E-01      0.4656708784E+00
          0                 3           2             8    2     1       0.1056682848E-02       8    2    1         0.2744028470E-01      0.1852057386E+00
          0                 4           2             8    2     1       0.4749705253E-03       8    2    1         0.1233420835E-01      0.8123337438E-01
          0                 5           2             8    2     1       0.2134950720E-03       8    2    1         0.5544126626E-02      0.3624847346E-01
          0                 6           1             8    2     1       0.9596397621E-04       8    2    1         0.2492035301E-02      0.1621853501E-01
          0                 7           1             8    2     1       0.4313480007E-04       8    2    1         0.1120145455E-02      0.7259835774E-02
          0                 8           1             8    2     1       0.1938860308E-04       8    2    1         0.5034934569E-03      0.3250036420E-02
          0                 9           1             8    2     1       0.8714939975E-05       8    2    1         0.2263145151E-03      0.1455035054E-02

    ------------------------------------------------
       NWT REQUIRED            9 OUTER ITERATIONS 
       AND A TOTAL OF         14 INNER ITERATIONS.
    ------------------------------------------------

 NO OUTPUT CONTROL FOR STRESS PERIOD    3   TIME STEP   20
 
 SOLVING FOR HEAD 
                                                   Max.-Head-Change                         Max.-Flux-Residual
  Residual-Control   Outer-Iter.   Inner-Iter.     Column Row Layer    Maximum-Head-Change  Column Row Layer    Maximum-Flux-Residual          L2-NORM 
          0                 1           2             2    2     1       0.6738189309E-02       2    2    1         0.3510170176E+00      0.1615452213E+01
          0                 2           2             8    2     1       0.2350460436E-02       2    2    1         0.6104816996E-01      0.4645408773E+00
          0                 3           2             8    2     1       0.1056513623E-02       8    2    1         0.2743592365E-01      0.1847783059E+00
          0                 4           2             8    2     1       0.4748937465E-03       8    2    1         0.1233222972E-01      0.8104681982E-01
          0                 5           2             8    2     1       0.2134602365E-03       8    2    1         0.5543228904E-02      0.3616553487E-01
          0                 6           1             8    2     1       0.9594817069E-04       8    2    1         0.2491627994E-02      0.1618159195E-01
          0                 7           1             8    2     1       0.4312762914E-04       8    2    1         0.1119960661E-02      0.7243375971E-02
          0                 8           1             8    2     1       0.1938534963E-04       8    2    1         0.5034096145E-03      0.3242702867E-02
          0                 9           1             8    2     1       0.8713464070E-05       8    2    1         0.2262764756E-03      0.1451775279E-02

    ------------------------------------------------
       NWT REQUIRED            9 OUTER ITERATIONS 
       AND A TOTAL OF         14 INNER ITERATIONS.
    ------------------------------------------------

 NO OUTPUT CONTROL FOR STRESS PERIOD    3   TIME STEP   21
 
 SOLVING FOR HEAD 
                                                   Max.-Head-Change                         Max.-Flux-Residual
  Residual-Control   Outer-Iter.   Inner-Iter.     Column Row Layer    Maximum-Head-Change  Column Row Layer    Maximum-Flux-Residual          L2-NORM 
          0                 1           2             2    2     1       0.6714928787E-02       2    2    1         0.3497914000E+00      0.1612466167E+01
          0                 2           2             8    2     1       0.2350032853E-02       8    2    1         0.6102647181E-01      0.4635914768E+00
          0                 3           2             8    2     1       0.1056319863E-02       8    2    1         0.2743092532E-01      0.1843649901E+00
          0                 4           2             8    2     1       0.4748059420E-03       8    2    1         0.1232996470E-01      0.8086259668E-01
          0                 5           2             8    2     1       0.2134204463E-03       8    2    1         0.5542202485E-02      0.3608342886E-01
          0                 6           1             8    2     1       0.9593013944E-04       8    2    1         0.2491162860E-02      0.1614500457E-01
          0                 7           1             8    2     1       0.4311945801E-04       8    2    1         0.1119749874E-02      0.7227074617E-02
          0                 8           1             8    2     1       0.1938164649E-04       8    2    1         0.5033140870E-03      0.3235438198E-02
          0                 9           1             8    2     1       0.8711785825E-05       8    2    1         0.2262331819E-03      0.1448530786E-02

    ------------------------------------------------
       NWT REQUIRED            9 OUTER ITERATIONS 
       AND A TOTAL OF         14 INNER ITERATIONS.
    ------------------------------------------------

 NO OUTPUT CONTROL FOR STRESS PERIOD    3   TIME STEP   22
 
 SOLVING FOR HEAD 
                                                   Max.-Head-Change                         Max.-Flux-Residual
  Residual-Control   Outer-Iter.   Inner-Iter.     Column Row Layer    Maximum-Head-Change  Column Row Layer    Maximum-Flux-Residual          L2-NORM 
          0                 1           2             2    2     1       0.6692226698E-02       2    2    1         0.3485952022E+00      0.1609680738E+01
          0                 2           2             8    2     1       0.2349650622E-02       8    2    1         0.6101662321E-01      0.4626579865E+00
          0                 3           2             8    2     1       0.1056146404E-02       8    2    1         0.2742645597E-01      0.1839547612E+00
          0                 4           2             8    2     1       0.4747272260E-03       8    2    1         0.1232793649E-01      0.8067949138E-01
          0                 5           2             8    2     1       0.2133847255E-03       8    2    1         0.5541282079E-02      0.3600179864E-01
          0                 6           1             8    2     1       0.9591392924E-04       8    2    1         0.2490745176E-02      0.1610862980E-01
          0                 7           1             8    2     1       0.4311210174E-04       8    2    1         0.1119560329E-02      0.7210863857E-02
          0                 8           1             8    2     1       0.1937830851E-04       8    2    1         0.5032280755E-03      0.3228214447E-02
          0                 9           1             8    2     1       0.8710271152E-05       8    2    1         0.2261941523E-03      0.1445310936E-02

    ------------------------------------------------
       NWT REQUIRED            9 OUTER ITERATIONS 
       AND A TOTAL OF         14 INNER ITERATIONS.
    ------------------------------------------------

 NO OUTPUT CONTROL FOR STRESS PERIOD    3   TIME STEP   23
 
 SOLVING FOR HEAD 
                                                   Max.-Head-Change                         Max.-Flux-Residual
  Residual-Control   Outer-Iter.   Inner-Iter.     Column Row Layer    Maximum-Head-Change  Column Row Layer    Maximum-Flux-Residual          L2-NORM 
          0                 1           2             2    2     1       0.6669984087E-02       2    2    1         0.3474232203E+00      0.1607000224E+01
          0                 2           2             8    2     1       0.2349263510E-02       8    2    1         0.6100664890E-01      0.4617385455E+00
          0                 3           2             8    2     1       0.1055970730E-02       8    2    1         0.2742192953E-01      0.1835482220E+00
          0                 4           2             8    2     1       0.4746475046E-03       8    2    1         0.1232588236E-01      0.8049789779E-01
          0                 5           2             8    2     1       0.2133485477E-03       8    2    1         0.5540349909E-02      0.3592082991E-01
          0                 6           1             8    2     1       0.9589751195E-04       8    2    1         0.2490322161E-02      0.1607253633E-01
          0                 7           1             8    2     1       0.4310465219E-04       8    2    1         0.1119368373E-02      0.7194780716E-02
          0                 8           1             8    2     1       0.1937492801E-04       8    2    1         0.5031409693E-03      0.3221046310E-02
          0                 9           1             8    2     1       0.8708737221E-05       8    2    1         0.2261546247E-03      0.1442116609E-02

    ------------------------------------------------
       NWT REQUIRED            9 OUTER ITERATIONS 
       AND A TOTAL OF         14 INNER ITERATIONS.
    ------------------------------------------------

 NO OUTPUT CONTROL FOR STRESS PERIOD    3   TIME STEP   24
 
 SOLVING FOR HEAD 
                                                   Max.-Head-Change                         Max.-Flux-Residual
  Residual-Control   Outer-Iter.   Inner-Iter.     Column Row Layer    Maximum-Head-Change  Column Row Layer    Maximum-Flux-Residual          L2-NORM 
          0                 1           2             2    2     1       0.6648102466E-02       2    2    1         0.3462703416E+00      0.1604050457E+01
          0                 2           2             8    2     1       0.2348871577E-02       8    2    1         0.6099654891E-01      0.4607888084E+00
          0                 3           2             8    2     1       0.1055792900E-02       8    2    1         0.2741734689E-01      0.1831420980E+00
          0                 4           2             8    2     1       0.4745668196E-03       8    2    1         0.1232380311E-01      0.8031714708E-01
          0                 5           2             8    2     1       0.2133119397E-03       8    2    1         0.5539406511E-02      0.3584026077E-01
          0                 6           1             8    2     1       0.9588090283E-04       8    2    1         0.2489894129E-02      0.1603663646E-01
          0                 7           1             8    2     1       0.4309711634E-04       8    2    1         0.1119174170E-02      0.7178778867E-02
          0                 8           1             8    2     1       0.1937150899E-04       8    2    1         0.5030528615E-03      0.3213914883E-02
          0                 9           1             8    2     1       0.8707186283E-05       8    2    1         0.2261146536E-03      0.1438936937E-02

    ------------------------------------------------
       NWT REQUIRED            9 OUTER ITERATIONS 
       AND A TOTAL OF         14 INNER ITERATIONS.
    ------------------------------------------------

 NO OUTPUT CONTROL FOR STRESS PERIOD    3   TIME STEP   25
 
 SOLVING FOR HEAD 
                                                   Max.-Head-Change                         Max.-Flux-Residual
  Residual-Control   Outer-Iter.   Inner-Iter.     Column Row Layer    Maximum-Head-Change  Column Row Layer    Maximum-Flux-Residual          L2-NORM 
          0                 1           2             2    2     1       0.6626661739E-02       2    2    1         0.3451406592E+00      0.1601135830E+01
          0                 2           2             8    2     1       0.2348424744E-02       8    2    1         0.6098502286E-01      0.4598729267E+00
          0                 3           2             8    2     1       0.1055590401E-02       8    2    1         0.2741212345E-01      0.1827386532E+00
          0                 4           2             8    2     1       0.4744750498E-03       8    2    1         0.1232143592E-01      0.8013692291E-01
          0                 5           2             8    2     1       0.2132703509E-03       8    2    1         0.5538333731E-02      0.3575989007E-01
          0                 6           1             8    2     1       0.9586205546E-04       8    2    1         0.2489407962E-02      0.1600102950E-01
          0                 7           1             8    2     1       0.4308857505E-04       8    2    1         0.1118953846E-02      0.7163295264E-02
          0                 8           1             8    2     1       0.1936763827E-04       8    2    1         0.5029530157E-03      0.3206810971E-02
          0                 9           1             8    2     1       0.8705432254E-05       8    2    1         0.2260694081E-03      0.1435767272E-02

    ------------------------------------------------
       NWT REQUIRED            9 OUTER ITERATIONS 
       AND A TOTAL OF         14 INNER ITERATIONS.
    ------------------------------------------------

 NO OUTPUT CONTROL FOR STRESS PERIOD    3   TIME STEP   26
 
 SOLVING FOR HEAD 
                                                   Max.-Head-Change                         Max.-Flux-Residual
  Residual-Control   Outer-Iter.   Inner-Iter.     Column Row Layer    Maximum-Head-Change  Column Row Layer    Maximum-Flux-Residual          L2-NORM 
          0                 1           2             2    2     1       0.6605651976E-02       2    2    1         0.3440337482E+00      0.1598825660E+01
          0                 2           2             8    2     1       0.2348023018E-02       8    2    1         0.6097467193E-01      0.4589917621E+00
          0                 3           2             8    2     1       0.1055408099E-02       8    2    1         0.2740742614E-01      0.1823410483E+00
          0                 4           2             8    2     1       0.4743923229E-03       8    2    1         0.1231930429E-01      0.7995879499E-01
          0                 5           2             8    2     1       0.2132328113E-03       8    2    1         0.5537366430E-02      0.3568042091E-01
          0                 6           1             8    2     1       0.9584502115E-04       8    2    1         0.2488969022E-02      0.1596538538E-01
          0                 7           1             8    2     1       0.4308084587E-04       8    2    1         0.1118754671E-02      0.7147020753E-02
          0                 8           1             8    2     1       0.1936413096E-04       8    2    1         0.5028626351E-03      0.3199758888E-02
          0                 9           1             8    2     1       0.8703840797E-05       8    2    1         0.2260283976E-03      0.1432626890E-02

    ------------------------------------------------
       NWT REQUIRED            9 OUTER ITERATIONS 
       AND A TOTAL OF         14 INNER ITERATIONS.
    ------------------------------------------------

 NO OUTPUT CONTROL FOR STRESS PERIOD    3   TIME STEP   27
 
 SOLVING FOR HEAD 
                                                   Max.-Head-Change                         Max.-Flux-Residual
  Residual-Control   Outer-Iter.   Inner-Iter.     Column Row Layer    Maximum-Head-Change  Column Row Layer    Maximum-Flux-Residual          L2-NORM 
          0                 1           2             2    2     1       0.6584975532E-02       2    2    1         0.3429444382E+00      0.1596572966E+01
          0                 2           2             8    2     1       0.2347615939E-02       8    2    1         0.6096418540E-01      0.4581213819E+00
          0                 3           2             8    2     1       0.1055223320E-02       8    2    1         0.2740266602E-01      0.1819472261E+00
          0                 4           2             8    2     1       0.4743084519E-03       8    2    1         0.1231714361E-01      0.7978227422E-01
          0                 5           2             8    2     1       0.2131947431E-03       8    2    1         0.5536385696E-02      0.3560165253E-01
          0                 6           1             8    2     1       0.9582774323E-04       8    2    1         0.2488523887E-02      0.1593027169E-01
          0                 7           1             8    2     1       0.4307300438E-04       8    2    1         0.1118552641E-02      0.7131367465E-02
          0                 8           1             8    2     1       0.1936057238E-04       8    2    1         0.5027709436E-03      0.3192780743E-02
          0                 9           1             8    2     1       0.8702225830E-05       8    2    1         0.2259867830E-03      0.1429515760E-02

    ------------------------------------------------
       NWT REQUIRED            9 OUTER ITERATIONS 
       AND A TOTAL OF         14 INNER ITERATIONS.
    ------------------------------------------------

 NO OUTPUT CONTROL FOR STRESS PERIOD    3   TIME STEP   28
 
 SOLVING FOR HEAD 
                                                   Max.-Head-Change                         Max.-Flux-Residual
  Residual-Control   Outer-Iter.   Inner-Iter.     Column Row Layer    Maximum-Head-Change  Column Row Layer    Maximum-Flux-Residual          L2-NORM 
          0                 1           2             2    2     1       0.6564712123E-02       2    2    1         0.3418769124E+00      0.1594202514E+01
          0                 2           2             8    2     1       0.2347153940E-02       8    2    1         0.6095226656E-01      0.4572471995E+00
          0                 3           2             8    2     1       0.1055013983E-02       8    2    1         0.2739726545E-01      0.1815545046E+00
          0                 4           2             8    2     1       0.4742135993E-03       8    2    1         0.1231469656E-01      0.7960625393E-01
          0                 5           2             8    2     1       0.2131517653E-03       8    2    1         0.5535276920E-02      0.3552311047E-01
          0                 6           1             8    2     1       0.9580827008E-04       8    2    1         0.2488021495E-02      0.1589525157E-01
          0                 7           1             8    2     1       0.4306418097E-04       8    2    1         0.1118325006E-02      0.7115753605E-02
          0                 8           1             8    2     1       0.1935657461E-04       8    2    1         0.5026678052E-03      0.3185819846E-02
          0                 9           1             8    2     1       0.8700414776E-05       8    2    1         0.2259400557E-03      0.1426412329E-02

    ------------------------------------------------
       NWT REQUIRED            9 OUTER ITERATIONS 
       AND A TOTAL OF         14 INNER ITERATIONS.
    ------------------------------------------------

 NO OUTPUT CONTROL FOR STRESS PERIOD    3   TIME STEP   29
 
 SOLVING FOR HEAD 
                                                   Max.-Head-Change                         Max.-Flux-Residual
  Residual-Control   Outer-Iter.   Inner-Iter.     Column Row Layer    Maximum-Head-Change  Column Row Layer    Maximum-Flux-Residual          L2-NORM 
          0                 1           2             2    2     1       0.8803258067E-02       2    2    1         0.4589981517E+00      0.1900603863E+01
          0                 2           2             8    2     1       0.2346736673E-02       2    2    1         0.7971727443E-01      0.4760616312E+00
          0                 3           2             8    2     1       0.1054824592E-02       8    2    1         0.2739238625E-01      0.1825757404E+00
          0                 4           2             8    2     1       0.4741276413E-03       8    2    1         0.1231248198E-01      0.7958748219E-01
          0                 5           2             8    2     1       0.2131127535E-03       8    2    1         0.5534271805E-02      0.3548488127E-01
          0                 6           1             8    2     1       0.9579056522E-04       8    2    1         0.2487565327E-02      0.1587622098E-01
          0                 7           1             8    2     1       0.4305614640E-04       8    2    1         0.1118117986E-02      0.7108087975E-02
          0                 8           1             8    2     1       0.1935292874E-04       8    2    1         0.5025738600E-03      0.3183881698E-02
          0                 9           1             8    2     1       0.8698760042E-05       8    2    1         0.2258974212E-03      0.1424674541E-02

    ------------------------------------------------
       NWT REQUIRED            9 OUTER ITERATIONS 
       AND A TOTAL OF         14 INNER ITERATIONS.
    ------------------------------------------------

 NO OUTPUT CONTROL FOR STRESS PERIOD    3   TIME STEP   30



 STREAM LISTING     PERIOD      3   STEP       30

 LAYER ROW COL. STREAM  RCH.  FLOW INTO     FLOW TO   FLOW OUT OF   OVRLND.     DIRECT     STREAM       STREAM     STREAM     STREAM   STREAMBED  STREAMBED
                SEG.NO.  NO.  STRM. RCH.    AQUIFER    STRM. RCH.    RUNOFF     PRECIP       ET          HEAD       DEPTH      WIDTH   CONDCTNC.   GRADIENT

   1    1    1     1     1    4.0813E+01  3.0672E-01   4.0506E+01  0.000E+00  0.000E+00  0.000E+00  1.09439E+03  1.337E+00  1.571E+01  7.072E-02  1.446E+00
   1    2    2     1     2    4.0506E+01  4.7505E-01   4.0031E+01  0.000E+00  0.000E+00  0.000E+00  1.08939E+03  1.334E+00  1.566E+01  1.096E-01  1.445E+00
   1    3    3     1     3    4.0031E+01  4.0519E-01   3.9626E+01  0.000E+00  0.000E+00  0.000E+00  1.08375E+03  1.331E+00  1.559E+01  9.355E-02  1.444E+00
   1    3    4     1     4    3.9626E+01  3.7315E-01   3.9253E+01  0.000E+00  0.000E+00  0.000E+00  1.07874E+03  1.328E+00  1.553E+01  8.621E-02  1.443E+00
   1    4    5     2     1    3.7253E+01  3.5331E-01   3.6899E+01  0.000E+00  0.000E+00  0.000E+00  1.07346E+03  1.530E+00  1.200E+01  7.800E-02  1.510E+00
   1    5    6     2     2    3.6899E+01  2.7132E-01   3.6628E+01  0.000E+00  0.000E+00  0.000E+00  1.06803E+03  1.522E+00  1.200E+01  6.000E-02  1.507E+00
   1    6    6     2     3    3.6628E+01  2.7091E-01   3.6357E+01  0.000E+00  0.000E+00  0.000E+00  1.06331E+03  1.515E+00  1.200E+01  6.000E-02  1.505E+00
   1    7    6     2     4    3.6357E+01  2.7051E-01   3.6087E+01  0.000E+00  0.000E+00  0.000E+00  1.05858E+03  1.508E+00  1.200E+01  6.000E-02  1.503E+00
   1    8    6     2     5    3.6087E+01  2.7010E-01   3.5817E+01  0.000E+00  0.000E+00  0.000E+00  1.05386E+03  1.502E+00  1.200E+01  6.000E-02  1.501E+00
   1    3    5     3     1    2.0000E+00  2.8252E-01   1.7175E+00  0.000E+00  0.000E+00  0.000E+00  1.07555E+03  1.909E+00  9.636E+00  7.227E-02  1.955E+00
   1    3    6     3     2    1.7175E+00  2.4905E-01   1.4684E+00  0.000E+00  0.000E+00  0.000E+00  1.07264E+03  1.727E+00  8.909E+00  6.682E-02  1.864E+00
   1    3    7     3     3    1.4684E+00  1.9718E-01   1.2712E+00  0.000E+00  0.000E+00  0.000E+00  1.06987E+03  1.555E+00  8.218E+00  5.547E-02  1.777E+00
   1    4    8     3     4    1.2712E+00  2.2567E-01   1.0456E+00  0.000E+00  0.000E+00  0.000E+00  1.06682E+03  1.364E+00  7.455E+00  6.709E-02  1.682E+00
   1    5    8     3     5    1.0456E+00  1.5790E-01   8.8768E-01  0.000E+00  0.000E+00  0.000E+00  1.06362E+03  1.164E+00  6.655E+00  4.991E-02  1.582E+00
   1    6    8     3     6    8.8768E-01  5.5980E-02   8.3170E-01  0.000E+00  0.000E+00  0.000E+00  1.06158E+03  1.036E+00  6.145E+00  1.844E-02  1.518E+00
   1    5   10     4     1    1.0000E+01  9.0919E-02   9.9091E+00  0.000E+00  0.000E+00  0.000E+00  1.07836E+03  6.368E-01  1.000E+01  2.500E-02  1.212E+00
   1    5    9     4     2    9.9091E+00  1.8158E-01   9.7275E+00  0.000E+00  0.000E+00  0.000E+00  1.07154E+03  6.315E-01  1.000E+01  5.000E-02  1.211E+00
   1    6    8     4     3    9.7275E+00  1.2689E-01   9.6006E+00  0.000E+00  0.000E+00  0.000E+00  1.06381E+03  6.256E-01  1.000E+01  3.500E-02  1.209E+00
   1    6    8     5     1    1.0432E+01  2.2686E-01   1.0205E+01  0.000E+00  0.000E+00  0.000E+00  1.05868E+03  6.790E-01  1.542E+01  6.166E-02  1.226E+00
   1    7    7     5     2    1.0205E+01  2.7894E-01   9.9265E+00  0.000E+00  0.000E+00  0.000E+00  1.05417E+03  6.732E-01  1.519E+01  7.594E-02  1.224E+00
   1    8    7     5     3    9.9265E+00  1.9221E-01   9.7343E+00  0.000E+00  0.000E+00  0.000E+00  1.04992E+03  6.676E-01  1.497E+01  5.241E-02  1.223E+00
   1    8    6     5     4    9.7343E+00  1.3577E-01   9.5985E+00  0.000E+00  0.000E+00  0.000E+00  1.04691E+03  6.637E-01  1.482E+01  3.706E-02  1.221E+00
   1    9    6     6     1    4.5415E+01  2.8462E-01   4.5130E+01  0.000E+00  0.000E+00  0.000E+00  1.04447E+03  1.744E+00  1.200E+01  6.000E-02  1.581E+00
   1   10    7     6     2    4.5130E+01  2.8423E-01   4.4846E+01  0.000E+00  0.000E+00  0.000E+00  1.03992E+03  1.737E+00  1.200E+01  6.000E-02  1.579E+00
   1   11    7     6     3    4.4846E+01  2.8383E-01   4.4562E+01  0.000E+00  0.000E+00  0.000E+00  1.03537E+03  1.731E+00  1.200E+01  6.000E-02  1.577E+00
   1   12    7     6     4    4.4562E+01  2.8344E-01   4.4279E+01  0.000E+00  0.000E+00  0.000E+00  1.03081E+03  1.724E+00  1.200E+01  6.000E-02  1.575E+00
   1   13    7     6     5    4.4279E+01  7.0226E-03   4.4272E+01  0.000E+00  0.000E+00  0.000E+00  1.02763E+03  1.721E+00  1.200E+01  2.400E-02  9.754E-02
   1   14    9     7     1    1.5000E+02  1.2356E+00   1.4876E+02  0.000E+00  0.000E+00  0.000E+00  1.03987E+03  2.288E+00  5.530E+01  5.593E-01  7.364E-01
   1   13    8     7     2    1.4876E+02  1.7004E+00   1.4706E+02  0.000E+00  0.000E+00  0.000E+00  1.03478E+03  2.280E+00  5.526E+01  6.148E-01  9.219E-01
   1   13    7     7     3    1.4706E+02  1.3150E+00   1.4575E+02  0.000E+00  0.000E+00  0.000E+00  1.02969E+03  2.272E+00  5.522E+01  5.585E-01  7.848E-01
   1   13    6     8     1    1.9002E+02  8.6181E-01   1.8916E+02  0.000E+00  0.000E+00  0.000E+00  1.02495E+03  3.075E+00  4.459E+01  4.544E-01  6.322E-01
   1   13    5     8     2    1.8916E+02  1.0099E-01   1.8906E+02  0.000E+00  0.000E+00  0.000E+00  1.01870E+03  3.073E+00  4.455E+01  4.540E-01  7.415E-02
   1   13    4     8     3    1.8906E+02 -2.5643E+00   1.9162E+02  0.000E+00  0.000E+00  0.000E+00  1.01246E+03  3.080E+00  4.466E+01  4.551E+00 -1.878E-01
   1   13    3     8     4    1.9162E+02 -3.6098E+00   1.9523E+02  0.000E+00  0.000E+00  0.000E+00  1.00622E+03  3.099E+00  4.493E+01  4.579E+00 -2.628E-01
   1   13    2     8     5    1.9523E+02 -2.4160E+00   1.9765E+02  0.000E+00  0.000E+00  0.000E+00  9.99992E+02  3.117E+00  4.519E+01  4.605E+00 -1.749E-01
   1   13    1     8     6    1.9765E+02 -1.8099E+00   1.9946E+02  0.000E+00  0.000E+00  0.000E+00  9.95004E+02  3.129E+00  4.537E+01  2.774E+00 -2.175E-01
   1    6    8     9     1    0.0000E+00  0.0000E+00   0.0000E+00  0.000E+00  0.000E+00  0.000E+00  1.07850E+03  0.000E+00  4.000E+00  0.000E+00  1.000E+00





UNSATURATED ZONE PACKAGE VOLUMETRIC BUDGET FOR  TIME STEP    30 STRESS PERIOD    3
  ------------------------------------------------------------------------------



     CUMULATIVE VOLUMES      L**3       RATES FOR THIS TIME STEP      L**3/T
     ------------------                 ------------------------

           IN:                                      IN:
           ---                                      ---
        INFILTRATION =      183082.4255          INFILTRATION =       0.0000E+00

          OUT:                                     OUT:
          ----                                     ----
              UZF ET =     1524233.9232                UZF ET =           0.2900
        UZF RECHARGE =   143256235.0649          UZF RECHARGE =          27.0175

            IN - OUT =  -144597386.5626              IN - OUT =         -27.3075

          STORAGE:                                 STORAGE:
          --------                                 --------
      STORAGE CHANGE =  -144592968.1218        STORAGE CHANGE =         -27.3073

 PERCENT DISCREPANCY IS DIFFERENCE BETWEEN IN-OUT MINUS CHANGE IN STORAGE
 DIVIDED BY THE AVERAGE OF IN AND OUT TIMES 100

 PERCENT DISCREPANCY =          -0.00     PERCENT DISCREPANCY =          -0.00






1
  VOLUMETRIC BUDGET FOR ENTIRE MODEL AT END OF TIME STEP   30, STRESS PERIOD   3
  ------------------------------------------------------------------------------

     CUMULATIVE VOLUMES      L**3       RATES FOR THIS TIME STEP      L**3/T
     ------------------                 ------------------------

           IN:                                      IN:
           ---                                      ---
             STORAGE     =     1005878.5625               STORAGE     =           0.0000
       CONSTANT HEAD     =           0.0000         CONSTANT HEAD     =           0.0000
               WELLS     =           0.0000                 WELLS     =           0.0000
     HEAD DEP BOUNDS     =     1506043.0000       HEAD DEP BOUNDS     =           0.2789
      STREAM LEAKAGE     =    56994788.0000        STREAM LEAKAGE     =          11.7548
        UZF RECHARGE     =   143256224.0000          UZF RECHARGE     =          27.0175
               GW ET     =           0.0000                 GW ET     =           0.0000
     SURFACE LEAKAGE     =           0.0000       SURFACE LEAKAGE     =           0.0000
    SUPPLEMENTARY WELLS  =           0.0000      SUPPLEMENTARY WELLS  =           0.0000

                TOTAL IN =   202762928.0000                  TOTAL IN =          39.0513

          OUT:                                     OUT:
          ----                                     ----
             STORAGE     =   140708624.0000               STORAGE     =          28.3554
       CONSTANT HEAD     =           0.0000         CONSTANT HEAD     =           0.0000
               WELLS     =           0.0000                 WELLS     =           0.0000
     HEAD DEP BOUNDS     =     1539949.2500       HEAD DEP BOUNDS     =           0.2910
      STREAM LEAKAGE     =    60304416.0000        STREAM LEAKAGE     =          10.4000
        UZF RECHARGE     =           0.0000          UZF RECHARGE     =           0.0000
               GW ET     =      151085.3438                 GW ET     =       3.0360E-10
     SURFACE LEAKAGE     =           0.0000       SURFACE LEAKAGE     =           0.0000
    SUPPLEMENTARY WELLS  =       31277.0352      SUPPLEMENTARY WELLS  =           0.0000

               TOTAL OUT =   202735360.0000                 TOTAL OUT =          39.0464

                IN - OUT =       27568.0000                  IN - OUT =       4.8332E-03

     PERCENT DISCREPANCY =           0.01         PERCENT DISCREPANCY =           0.01






         TIME SUMMARY AT END OF TIME STEP   30 IN STRESS PERIOD    3
                    SECONDS     MINUTES      HOURS       DAYS        YEARS
                    -----------------------------------------------------------
   TIME STEP LENGTH  87600.      1460.0      24.333      1.0139     2.77588E-03
 STRESS PERIOD TIME 2.62800E+06  43800.      730.00      30.417     8.32763E-02
         TOTAL TIME 5.34240E+06  89040.      1484.0      61.833     0.16929    
1
1
                            STRESS PERIOD NO.    4, LENGTH =   2628000.    
                            -----------------------------------------------

                              NUMBER OF TIME STEPS =    30

                               MULTIPLIER FOR DELT =     1.000

                            INITIAL TIME STEP SIZE =   87600.00    

 WELL NO.  LAYER   ROW   COL   STRESS RATE         
 --------------------------------------------------
      1      1      6      4       0.000    
      2      1      6      7       0.000    
      3      1      7      4       0.000    
      4      1      7      5       0.000    
      5      1      8      4       0.000    
      6      1      8      5       0.000    
      7      1      9      4       0.000    
      8      1      9      5       0.000    
      9      1     10      4       0.000    
     10      1     10      5       0.000    

     10 WELLS

 REUSING NON-PARAMETER GHB CELLS FROM LAST STRESS PERIOD

      2 GHB CELLS

 REUSING STREAM SEGMENT DATA FROM LAST STRESS PERIOD



            AREAL INFILTRATION RATE
 READING ON UNIT   19 WITH FORMAT: (10F4.0)            

            1           2           3           4           5           6           7           8           9          10
 ........................................................................................................................
   1    0.000       0.000       0.000       0.000       0.000       0.000       0.000       0.000       0.000       0.000    
   2    0.000       0.000       0.000       0.000       0.000       0.000       0.000       0.000       0.000       0.000    
   3    0.000       0.000       0.000       0.000       0.000       0.000       0.000       0.000       0.000       0.000    
   4    0.000       0.000       0.000       0.000       0.000       0.000       0.000       0.000       0.000       0.000    
   5    0.000       0.000       0.000       0.000       0.000       0.000       0.000       0.000       0.000       0.000    
   6    0.000       0.000       0.000       0.000       0.000       0.000       0.000       0.000       0.000       0.000    
   7    0.000       0.000       0.000       0.000       0.000       0.000       0.000       0.000       0.000       0.000    
   8    0.000       0.000       0.000       0.000       0.000       0.000       0.000       0.000       0.000       0.000    
   9    0.000       0.000       0.000       0.000       0.000       0.000       0.000       0.000       0.000       0.000    
  10    0.000       0.000       0.000       0.000       0.000       0.000       0.000       0.000       0.000       0.000    
  11    0.000       0.000       0.000       0.000       0.000       0.000       0.000       0.000       0.000       0.000    
  12    0.000       0.000       0.000       0.000       0.000       0.000       0.000       0.000       0.000       0.000    
  13    0.000       0.000       0.000       0.000       0.000       0.000       0.000       0.000       0.000       0.000    
  14    0.000       0.000       0.000       0.000       0.000       0.000       0.000       0.000       0.000       0.000    
  15    0.000       0.000       0.000       0.000       0.000       0.000       0.000       0.000       0.000       0.000    

                  ET RATE =  1.000000E-10

 USING ET EXTINCTION DEPTH FROM PREVIOUS STRESS PERIOD. CURRENT PERIOD IS:       4

 USING EXTINCTION WATER CONTENT FROM PREVIOUS STRESS PERIOD. CURRENT PERIOD IS:       4

 PROCESSING AGO STRESS PERIOD DATA

 READING AGO STRESS PERIOD DATA

 READING IRRIGATION STREAM

 READING IRRIGATION WELL

 READING SUPPLEMENTAL WEL

 END PROCESSING AGO STRESS PERIOD DATA OPTIONS
 
 SOLVING FOR HEAD 
                                                   Max.-Head-Change                         Max.-Flux-Residual
  Residual-Control   Outer-Iter.   Inner-Iter.     Column Row Layer    Maximum-Head-Change  Column Row Layer    Maximum-Flux-Residual          L2-NORM 
          0                 1           2             2    2     1       0.8879428523E-02       2    2    1         0.4629688590E+00      0.1885464772E+01
          0                 2           2             8    2     1       0.2346313931E-02       2    2    1         0.8040710800E-01      0.4766267093E+00
          0                 3           2             8    2     1       0.1054632725E-02       8    2    1         0.2738744308E-01      0.1824651007E+00
          0                 4           2             8    2     1       0.4740405634E-03       8    2    1         0.1231023848E-01      0.7948783808E-01
          0                 5           2             8    2     1       0.2130732354E-03       8    2    1         0.5533253610E-02      0.3543608126E-01
          0                 6           1             8    2     1       0.9577263151E-04       8    2    1         0.2487103245E-02      0.1585406227E-01
          0                 7           1             8    2     1       0.4304800829E-04       8    2    1         0.1117908292E-02      0.7097161507E-02
          0                 8           1             8    2     1       0.1934923560E-04       8    2    1         0.5024787028E-03      0.3177482262E-02
          0                 9           1             8    2     1       0.8697084548E-05       8    2    1         0.2258542488E-03      0.1422678524E-02

    ------------------------------------------------
       NWT REQUIRED            9 OUTER ITERATIONS 
       AND A TOTAL OF         14 INNER ITERATIONS.
    ------------------------------------------------

 NO OUTPUT CONTROL FOR STRESS PERIOD    4   TIME STEP    1
 
 SOLVING FOR HEAD 
                                                   Max.-Head-Change                         Max.-Flux-Residual
  Residual-Control   Outer-Iter.   Inner-Iter.     Column Row Layer    Maximum-Head-Change  Column Row Layer    Maximum-Flux-Residual          L2-NORM 
          0                 1           2             2    2     1       0.8836849079E-02       2    2    1         0.4607260809E+00      0.1859499306E+01
          0                 2           2             8    2     1       0.2345835767E-02       2    2    1         0.8002380555E-01      0.4751482038E+00
          0                 3           2             8    2     1       0.1054415993E-02       8    2    1         0.2738185319E-01      0.1821640339E+00
          0                 4           2             8    2     1       0.4739423296E-03       8    2    1         0.1230770481E-01      0.7936830105E-01
          0                 5           2             8    2     1       0.2130287122E-03       8    2    1         0.5532105238E-02      0.3538329840E-01
          0                 6           1             8    2     1       0.9575245255E-04       8    2    1         0.2486582766E-02      0.1583047980E-01
          0                 7           1             8    2     1       0.4303886298E-04       8    2    1         0.1117672399E-02      0.7086613655E-02
          0                 8           1             8    2     1       0.1934509126E-04       8    2    1         0.5023717957E-03      0.3172764968E-02
          0                 9           1             8    2     1       0.8695206214E-05       8    2    1         0.2258057944E-03      0.1420568988E-02

    ------------------------------------------------
       NWT REQUIRED            9 OUTER ITERATIONS 
       AND A TOTAL OF         14 INNER ITERATIONS.
    ------------------------------------------------

 NO OUTPUT CONTROL FOR STRESS PERIOD    4   TIME STEP    2
 
 SOLVING FOR HEAD 
                                                   Max.-Head-Change                         Max.-Flux-Residual
  Residual-Control   Outer-Iter.   Inner-Iter.     Column Row Layer    Maximum-Head-Change  Column Row Layer    Maximum-Flux-Residual          L2-NORM 
          0                 1           2             2    2     1       0.8795128000E-02       2    2    1         0.4585285870E+00      0.1836694046E+01
          0                 2           2             8    2     1       0.2345402485E-02       2    2    1         0.7964822293E-01      0.4736061827E+00
          0                 3           2             8    2     1       0.1054219416E-02       8    2    1         0.2737678712E-01      0.1818415029E+00
          0                 4           2             8    2     1       0.4738531477E-03       8    2    1         0.1230540639E-01      0.7924474548E-01
          0                 5           2             8    2     1       0.2129882539E-03       8    2    1         0.5531062506E-02      0.3532925685E-01
          0                 6           1             8    2     1       0.9573409915E-04       8    2    1         0.2486109726E-02      0.1580639062E-01
          0                 7           1             8    2     1       0.4303053753E-04       8    2    1         0.1117457810E-02      0.7075843838E-02
          0                 8           1             8    2     1       0.1934131508E-04       8    2    1         0.5022744532E-03      0.3167951987E-02
          0                 9           1             8    2     1       0.8693492953E-05       8    2    1         0.2257616359E-03      0.1418419758E-02

    ------------------------------------------------
       NWT REQUIRED            9 OUTER ITERATIONS 
       AND A TOTAL OF         14 INNER ITERATIONS.
    ------------------------------------------------

 NO OUTPUT CONTROL FOR STRESS PERIOD    4   TIME STEP    3
 
 SOLVING FOR HEAD 
                                                   Max.-Head-Change                         Max.-Flux-Residual
  Residual-Control   Outer-Iter.   Inner-Iter.     Column Row Layer    Maximum-Head-Change  Column Row Layer    Maximum-Flux-Residual          L2-NORM 
          0                 1           2             2    2     1       0.8754157752E-02       2    2    1         0.4563707391E+00      0.1817244643E+01
          0                 2           2             8    2     1       0.2344913669E-02       2    2    1         0.7927938957E-01      0.4722943850E+00
          0                 3           2             8    2     1       0.1053997871E-02       8    2    1         0.2737107279E-01      0.1815380948E+00
          0                 4           2             8    2     1       0.4737527399E-03       8    2    1         0.1230281651E-01      0.7912172625E-01
          0                 5           2             8    2     1       0.2129427487E-03       8    2    1         0.5529888733E-02      0.3527483087E-01
          0                 6           1             8    2     1       0.9571347700E-04       8    2    1         0.2485577773E-02      0.1578207656E-01
          0                 7           1             8    2     1       0.4302119188E-04       8    2    1         0.1117216733E-02      0.7064972126E-02
          0                 8           1             8    2     1       0.1933707970E-04       8    2    1         0.5021652020E-03      0.3163087788E-02
          0                 9           1             8    2     1       0.8691574101E-05       8    2    1         0.2257121306E-03      0.1416240544E-02

    ------------------------------------------------
       NWT REQUIRED            9 OUTER ITERATIONS 
       AND A TOTAL OF         14 INNER ITERATIONS.
    ------------------------------------------------

 NO OUTPUT CONTROL FOR STRESS PERIOD    4   TIME STEP    4
 
 SOLVING FOR HEAD 
                                                   Max.-Head-Change                         Max.-Flux-Residual
  Residual-Control   Outer-Iter.   Inner-Iter.     Column Row Layer    Maximum-Head-Change  Column Row Layer    Maximum-Flux-Residual          L2-NORM 
          0                 1           2             2    2     1       0.8714008941E-02       2    2    1         0.4542561871E+00      0.1801465442E+01
          0                 2           2             8    2     1       0.2344469365E-02       2    2    1         0.7891794794E-01      0.4711698012E+00
          0                 3           2             8    2     1       0.1053796239E-02       8    2    1         0.2736587757E-01      0.1812417454E+00
          0                 4           2             8    2     1       0.4736612410E-03       8    2    1         0.1230045886E-01      0.7899764931E-01
          0                 5           2             8    2     1       0.2129012293E-03       8    2    1         0.5528818861E-02      0.3521969993E-01
          0                 6           1             8    2     1       0.9569463788E-04       8    2    1         0.2485092303E-02      0.1575743540E-01
          0                 7           1             8    2     1       0.4301264434E-04       8    2    1         0.1116996457E-02      0.7053952919E-02
          0                 8           1             8    2     1       0.1933320173E-04       8    2    1         0.5020652589E-03      0.3158160224E-02
          0                 9           1             8    2     1       0.8689814570E-05       8    2    1         0.2256667872E-03      0.1414037346E-02

    ------------------------------------------------
       NWT REQUIRED            9 OUTER ITERATIONS 
       AND A TOTAL OF         14 INNER ITERATIONS.
    ------------------------------------------------

 OUTPUT CONTROL FOR STRESS PERIOD    4   TIME STEP    5
    PRINT BUDGET
    SAVE BUDGET
 UBUDSV SAVING "         STORAGE" ON UNIT102 AT TIME STEP     5, STRESS PERIOD    4
 UBUDSV SAVING "   CONSTANT HEAD" ON UNIT102 AT TIME STEP     5, STRESS PERIOD    4
 UBUDSV SAVING "FLOW RIGHT FACE " ON UNIT102 AT TIME STEP     5, STRESS PERIOD    4
 UBUDSV SAVING "FLOW FRONT FACE " ON UNIT102 AT TIME STEP     5, STRESS PERIOD    4

  HEAD DEP BOUNDS   PERIOD    4   STEP     5
 BOUNDARY      1   LAYER   1   ROW    13   COL     1   RATE   -0.291827    
 BOUNDARY      2   LAYER   1   ROW    14   COL     9   RATE    0.278506    



 STREAM LISTING     PERIOD      4   STEP        5

 LAYER ROW COL. STREAM  RCH.  FLOW INTO     FLOW TO   FLOW OUT OF   OVRLND.     DIRECT     STREAM       STREAM     STREAM     STREAM   STREAMBED  STREAMBED
                SEG.NO.  NO.  STRM. RCH.    AQUIFER    STRM. RCH.    RUNOFF     PRECIP       ET          HEAD       DEPTH      WIDTH   CONDCTNC.   GRADIENT

   1    1    1     1     1    4.2000E+01  3.1070E-01   4.1689E+01  0.000E+00  0.000E+00  0.000E+00  1.09439E+03  1.346E+00  1.589E+01  7.149E-02  1.449E+00
   1    2    2     1     2    4.1689E+01  4.8125E-01   4.1208E+01  0.000E+00  0.000E+00  0.000E+00  1.08940E+03  1.343E+00  1.583E+01  1.108E-01  1.448E+00
   1    3    3     1     3    4.1208E+01  4.1050E-01   4.0798E+01  0.000E+00  0.000E+00  0.000E+00  1.08376E+03  1.340E+00  1.577E+01  9.459E-02  1.447E+00
   1    3    4     1     4    4.0798E+01  3.7807E-01   4.0419E+01  0.000E+00  0.000E+00  0.000E+00  1.07874E+03  1.337E+00  1.571E+01  8.718E-02  1.446E+00
   1    4    5     2     1    3.8419E+01  3.5555E-01   3.8064E+01  0.000E+00  0.000E+00  0.000E+00  1.07349E+03  1.558E+00  1.200E+01  7.800E-02  1.519E+00
   1    5    6     2     2    3.8064E+01  2.7304E-01   3.7791E+01  0.000E+00  0.000E+00  0.000E+00  1.06806E+03  1.551E+00  1.200E+01  6.000E-02  1.517E+00
   1    6    6     2     3    3.7791E+01  2.7264E-01   3.7518E+01  0.000E+00  0.000E+00  0.000E+00  1.06334E+03  1.544E+00  1.200E+01  6.000E-02  1.515E+00
   1    7    6     2     4    3.7518E+01  2.7223E-01   3.7246E+01  0.000E+00  0.000E+00  0.000E+00  1.05861E+03  1.537E+00  1.200E+01  6.000E-02  1.512E+00
   1    8    6     2     5    3.7246E+01  2.7183E-01   3.6974E+01  0.000E+00  0.000E+00  0.000E+00  1.05389E+03  1.531E+00  1.200E+01  6.000E-02  1.510E+00
   1    3    5     3     1    2.0000E+00  2.8252E-01   1.7175E+00  0.000E+00  0.000E+00  0.000E+00  1.07555E+03  1.909E+00  9.636E+00  7.227E-02  1.955E+00
   1    3    6     3     2    1.7175E+00  2.4905E-01   1.4684E+00  0.000E+00  0.000E+00  0.000E+00  1.07264E+03  1.727E+00  8.909E+00  6.682E-02  1.864E+00
   1    3    7     3     3    1.4684E+00  1.9718E-01   1.2712E+00  0.000E+00  0.000E+00  0.000E+00  1.06987E+03  1.555E+00  8.218E+00  5.547E-02  1.777E+00
   1    4    8     3     4    1.2712E+00  2.2567E-01   1.0456E+00  0.000E+00  0.000E+00  0.000E+00  1.06682E+03  1.364E+00  7.455E+00  6.709E-02  1.682E+00
   1    5    8     3     5    1.0456E+00  1.5790E-01   8.8768E-01  0.000E+00  0.000E+00  0.000E+00  1.06362E+03  1.164E+00  6.655E+00  4.991E-02  1.582E+00
   1    6    8     3     6    8.8768E-01  5.5980E-02   8.3170E-01  0.000E+00  0.000E+00  0.000E+00  1.06158E+03  1.036E+00  6.145E+00  1.844E-02  1.518E+00
   1    5   10     4     1    1.0000E+01  9.0919E-02   9.9091E+00  0.000E+00  0.000E+00  0.000E+00  1.07836E+03  6.368E-01  1.000E+01  2.500E-02  1.212E+00
   1    5    9     4     2    9.9091E+00  1.8158E-01   9.7275E+00  0.000E+00  0.000E+00  0.000E+00  1.07154E+03  6.315E-01  1.000E+01  5.000E-02  1.211E+00
   1    6    8     4     3    9.7275E+00  1.2689E-01   9.6006E+00  0.000E+00  0.000E+00  0.000E+00  1.06381E+03  6.256E-01  1.000E+01  3.500E-02  1.209E+00
   1    6    8     5     1    1.0432E+01  2.2686E-01   1.0205E+01  0.000E+00  0.000E+00  0.000E+00  1.05868E+03  6.790E-01  1.542E+01  6.166E-02  1.226E+00
   1    7    7     5     2    1.0205E+01  2.7894E-01   9.9265E+00  0.000E+00  0.000E+00  0.000E+00  1.05417E+03  6.732E-01  1.519E+01  7.594E-02  1.224E+00
   1    8    7     5     3    9.9265E+00  1.9221E-01   9.7343E+00  0.000E+00  0.000E+00  0.000E+00  1.04992E+03  6.676E-01  1.497E+01  5.241E-02  1.223E+00
   1    8    6     5     4    9.7343E+00  1.3577E-01   9.5985E+00  0.000E+00  0.000E+00  0.000E+00  1.04691E+03  6.637E-01  1.482E+01  3.706E-02  1.221E+00
   1    9    6     6     1    4.6573E+01  2.8622E-01   4.6287E+01  0.000E+00  0.000E+00  0.000E+00  1.04450E+03  1.770E+00  1.200E+01  6.000E-02  1.590E+00
   1   10    7     6     2    4.6287E+01  2.8583E-01   4.6001E+01  0.000E+00  0.000E+00  0.000E+00  1.03995E+03  1.764E+00  1.200E+01  6.000E-02  1.588E+00
   1   11    7     6     3    4.6001E+01  2.8543E-01   4.5715E+01  0.000E+00  0.000E+00  0.000E+00  1.03539E+03  1.757E+00  1.200E+01  6.000E-02  1.586E+00
   1   12    7     6     4    4.5715E+01  2.8504E-01   4.5430E+01  0.000E+00  0.000E+00  0.000E+00  1.03084E+03  1.751E+00  1.200E+01  6.000E-02  1.584E+00
   1   13    7     6     5    4.5430E+01  7.0551E-03   4.5423E+01  0.000E+00  0.000E+00  0.000E+00  1.02766E+03  1.747E+00  1.200E+01  2.400E-02  9.799E-02
   1   14    9     7     1    1.5000E+02  1.2293E+00   1.4877E+02  0.000E+00  0.000E+00  0.000E+00  1.03987E+03  2.288E+00  5.530E+01  5.593E-01  7.326E-01
   1   13    8     7     2    1.4877E+02  1.6903E+00   1.4708E+02  0.000E+00  0.000E+00  0.000E+00  1.03478E+03  2.280E+00  5.526E+01  6.148E-01  9.164E-01
   1   13    7     7     3    1.4708E+02  1.3010E+00   1.4578E+02  0.000E+00  0.000E+00  0.000E+00  1.02969E+03  2.272E+00  5.523E+01  5.585E-01  7.764E-01
   1   13    6     8     1    1.9120E+02  8.5374E-01   1.9035E+02  0.000E+00  0.000E+00  0.000E+00  1.02496E+03  3.083E+00  4.470E+01  4.555E-01  6.248E-01
   1   13    5     8     2    1.9035E+02  9.4433E-02   1.9025E+02  0.000E+00  0.000E+00  0.000E+00  1.01870E+03  3.080E+00  4.466E+01  4.551E-01  6.917E-02
   1   13    4     8     3    1.9025E+02 -2.6874E+00   1.9294E+02  0.000E+00  0.000E+00  0.000E+00  1.01246E+03  3.088E+00  4.477E+01  4.562E+00 -1.964E-01
   1   13    3     8     4    1.9294E+02 -3.7214E+00   1.9666E+02  0.000E+00  0.000E+00  0.000E+00  1.00623E+03  3.107E+00  4.505E+01  4.591E+00 -2.702E-01
   1   13    2     8     5    1.9666E+02 -2.5329E+00   1.9920E+02  0.000E+00  0.000E+00  0.000E+00  1.00000E+03  3.125E+00  4.532E+01  4.618E+00 -1.828E-01
   1   13    1     8     6    1.9920E+02 -1.8537E+00   2.0105E+02  0.000E+00  0.000E+00  0.000E+00  9.95013E+02  3.138E+00  4.551E+01  2.782E+00 -2.221E-01
   1    6    8     9     1    0.0000E+00  0.0000E+00   0.0000E+00  0.000E+00  0.000E+00  0.000E+00  1.07850E+03  0.000E+00  4.000E+00  0.000E+00  1.000E+00



 UBDSV3 SAVING "     NETRECHARGE" ON UNIT 100 AT TIME STEP     5, STRESS PERIOD   4
 UBDSV3 SAVING "    NETDISCHARGE" ON UNIT 101 AT TIME STEP     5, STRESS PERIOD   4
 UBDSV3 SAVING "           GW ET" ON UNIT  61 AT TIME STEP     5, STRESS PERIOD   4
 UBDSV3 SAVING "    UZF RECHARGE" ON UNIT  61 AT TIME STEP     5, STRESS PERIOD   4
 UBDSV3 SAVING " SURFACE LEAKAGE" ON UNIT  61 AT TIME STEP     5, STRESS PERIOD   4
 UBDSV3 SAVING "       HORT+DUNN" ON UNIT  61 AT TIME STEP     5, STRESS PERIOD   4
 UBDSV3 SAVING "  STORAGE CHANGE" ON UNIT  61 AT TIME STEP     5, STRESS PERIOD   4


UNSATURATED ZONE PACKAGE VOLUMETRIC BUDGET FOR  TIME STEP     5 STRESS PERIOD    4
  ------------------------------------------------------------------------------



     CUMULATIVE VOLUMES      L**3       RATES FOR THIS TIME STEP      L**3/T
     ------------------                 ------------------------

           IN:                                      IN:
           ---                                      ---
        INFILTRATION =      183082.4255          INFILTRATION =       0.0000E+00

          OUT:                                     OUT:
          ----                                     ----
              UZF ET =     1651253.9232                UZF ET =           0.2900
        UZF RECHARGE =   155045818.3007          UZF RECHARGE =          26.8452

            IN - OUT =  -156513989.7984              IN - OUT =         -27.1352

          STORAGE:                                 STORAGE:
          --------                                 --------
      STORAGE CHANGE =  -156509479.7654        STORAGE CHANGE =         -27.1350

 PERCENT DISCREPANCY IS DIFFERENCE BETWEEN IN-OUT MINUS CHANGE IN STORAGE
 DIVIDED BY THE AVERAGE OF IN AND OUT TIMES 100

 PERCENT DISCREPANCY =          -0.00     PERCENT DISCREPANCY =          -0.00






1
  VOLUMETRIC BUDGET FOR ENTIRE MODEL AT END OF TIME STEP    5, STRESS PERIOD   4
  ------------------------------------------------------------------------------

     CUMULATIVE VOLUMES      L**3       RATES FOR THIS TIME STEP      L**3/T
     ------------------                 ------------------------

           IN:                                      IN:
           ---                                      ---
             STORAGE     =     1005878.5625               STORAGE     =           0.0000
       CONSTANT HEAD     =           0.0000         CONSTANT HEAD     =           0.0000
               WELLS     =           0.0000                 WELLS     =           0.0000
     HEAD DEP BOUNDS     =     1628104.3750       HEAD DEP BOUNDS     =           0.2785
      STREAM LEAKAGE     =    62148732.0000        STREAM LEAKAGE     =          11.7455
        UZF RECHARGE     =   155045808.0000          UZF RECHARGE     =          26.8452
               GW ET     =           0.0000                 GW ET     =           0.0000
     SURFACE LEAKAGE     =           0.0000       SURFACE LEAKAGE     =           0.0000
    SUPPLEMENTARY WELLS  =           0.0000      SUPPLEMENTARY WELLS  =           0.0000

                TOTAL IN =   219828528.0000                  TOTAL IN =          38.8693

          OUT:                                     OUT:
          ----                                     ----
             STORAGE     =   152992944.0000               STORAGE     =          27.7772
       CONSTANT HEAD     =           0.0000         CONSTANT HEAD     =           0.0000
               WELLS     =           0.0000                 WELLS     =           0.0000
     HEAD DEP BOUNDS     =     1667623.5000       HEAD DEP BOUNDS     =           0.2918
      STREAM LEAKAGE     =    64955900.0000        STREAM LEAKAGE     =          10.7955
        UZF RECHARGE     =           0.0000          UZF RECHARGE     =           0.0000
               GW ET     =      151085.3438                 GW ET     =       3.0354E-10
     SURFACE LEAKAGE     =           0.0000       SURFACE LEAKAGE     =           0.0000
    SUPPLEMENTARY WELLS  =       31277.0352      SUPPLEMENTARY WELLS  =           0.0000

               TOTAL OUT =   219798832.0000                 TOTAL OUT =          38.8645

                IN - OUT =       29696.0000                  IN - OUT =       4.8027E-03

     PERCENT DISCREPANCY =           0.01         PERCENT DISCREPANCY =           0.01






         TIME SUMMARY AT END OF TIME STEP    5 IN STRESS PERIOD    4
                    SECONDS     MINUTES      HOURS       DAYS        YEARS
                    -----------------------------------------------------------
   TIME STEP LENGTH  87600.      1460.0      24.333      1.0139     2.77588E-03
 STRESS PERIOD TIME 4.38000E+05  7300.0      121.67      5.0694     1.38794E-02
         TOTAL TIME 5.78040E+06  96340.      1605.7      66.903     0.18317    
1
 
 SOLVING FOR HEAD 
                                                   Max.-Head-Change                         Max.-Flux-Residual
  Residual-Control   Outer-Iter.   Inner-Iter.     Column Row Layer    Maximum-Head-Change  Column Row Layer    Maximum-Flux-Residual          L2-NORM 
          0                 1           2             2    2     1       0.8674575782E-02       2    2    1         0.4521794025E+00      0.1787964313E+01
          0                 2           2             8    2     1       0.2344019419E-02       2    2    1         0.7856294142E-01      0.4701211997E+00
          0                 3           2             8    2     1       0.1053592083E-02       8    2    1         0.2736061655E-01      0.1809463464E+00
          0                 4           2             8    2     1       0.4735686134E-03       8    2    1         0.1229807178E-01      0.7887257712E-01
          0                 5           2             8    2     1       0.2128592057E-03       8    2    1         0.5527735833E-02      0.3516406867E-01
          0                 6           1             8    2     1       0.9567557292E-04       8    2    1         0.2484600950E-02      0.1573256862E-01
          0                 7           1             8    2     1       0.4300399550E-04       8    2    1         0.1116773551E-02      0.7042835452E-02
          0                 8           1             8    2     1       0.1932927874E-04       8    2    1         0.5019641467E-03      0.3153189570E-02
          0                 9           1             8    2     1       0.8688035280E-05       8    2    1         0.2256209213E-03      0.1411815346E-02

    ------------------------------------------------
       NWT REQUIRED            9 OUTER ITERATIONS 
       AND A TOTAL OF         14 INNER ITERATIONS.
    ------------------------------------------------

 NO OUTPUT CONTROL FOR STRESS PERIOD    4   TIME STEP    6
 
 SOLVING FOR HEAD 
                                                   Max.-Head-Change                         Max.-Flux-Residual
  Residual-Control   Outer-Iter.   Inner-Iter.     Column Row Layer    Maximum-Head-Change  Column Row Layer    Maximum-Flux-Residual          L2-NORM 
          0                 1           2             2    2     1       0.8635928738E-02       2    2    1         0.4501441091E+00      0.1776335099E+01
          0                 2           2             8    2     1       0.2343513860E-02       2    2    1         0.7821500311E-01      0.4691336389E+00
          0                 3           2             8    2     1       0.1053362982E-02       8    2    1         0.2735470663E-01      0.1806515337E+00
          0                 4           2             8    2     1       0.4734647971E-03       8    2    1         0.1229539364E-01      0.7874669272E-01
          0                 5           2             8    2     1       0.2128121630E-03       8    2    1         0.5526522245E-02      0.3510803074E-01
          0                 6           1             8    2     1       0.9565425720E-04       8    2    1         0.2484051038E-02      0.1570751557E-01
          0                 7           1             8    2     1       0.4299433771E-04       8    2    1         0.1116524381E-02      0.7031632815E-02
          0                 8           1             8    2     1       0.1932490254E-04       8    2    1         0.5018512429E-03      0.3148180001E-02
          0                 9           1             8    2     1       0.8686052650E-05       8    2    1         0.2255697696E-03      0.1409575281E-02

    ------------------------------------------------
       NWT REQUIRED            9 OUTER ITERATIONS 
       AND A TOTAL OF         14 INNER ITERATIONS.
    ------------------------------------------------

 NO OUTPUT CONTROL FOR STRESS PERIOD    4   TIME STEP    7
 
 SOLVING FOR HEAD 
                                                   Max.-Head-Change                         Max.-Flux-Residual
  Residual-Control   Outer-Iter.   Inner-Iter.     Column Row Layer    Maximum-Head-Change  Column Row Layer    Maximum-Flux-Residual          L2-NORM 
          0                 1           2             2    2     1       0.8598050670E-02       2    2    1         0.4481493366E+00      0.1765766197E+01
          0                 2           2             8    2     1       0.2343052626E-02       2    2    1         0.7787398548E-01      0.4680313567E+00
          0                 3           2             8    2     1       0.1053153681E-02       8    2    1         0.2734931351E-01      0.1803389362E+00
          0                 4           2             8    2     1       0.4733698241E-03       8    2    1         0.1229294634E-01      0.7861818559E-01
          0                 5           2             8    2     1       0.2127690706E-03       8    2    1         0.5525411768E-02      0.3505114014E-01
          0                 6           1             8    2     1       0.9563470602E-04       8    2    1         0.2483547183E-02      0.1568211258E-01
          0                 7           1             8    2     1       0.4298546752E-04       8    2    1         0.1116295779E-02      0.7020276940E-02
          0                 8           1             8    2     1       0.1932087876E-04       8    2    1         0.5017475348E-03      0.3143102696E-02
          0                 9           1             8    2     1       0.8684227339E-05       8    2    1         0.2255227221E-03      0.1407305277E-02

    ------------------------------------------------
       NWT REQUIRED            9 OUTER ITERATIONS 
       AND A TOTAL OF         14 INNER ITERATIONS.
    ------------------------------------------------

 NO OUTPUT CONTROL FOR STRESS PERIOD    4   TIME STEP    8
 
 SOLVING FOR HEAD 
                                                   Max.-Head-Change                         Max.-Flux-Residual
  Residual-Control   Outer-Iter.   Inner-Iter.     Column Row Layer    Maximum-Head-Change  Column Row Layer    Maximum-Flux-Residual          L2-NORM 
          0                 1           2             2    2     1       0.8560836779E-02       2    2    1         0.4461896188E+00      0.1752497077E+01
          0                 2           2             8    2     1       0.2342535749E-02       2    2    1         0.7753893971E-01      0.4666111080E+00
          0                 3           2             8    2     1       0.1052919476E-02       8    2    1         0.2734327141E-01      0.1800064934E+00
          0                 4           2             8    2     1       0.4732637063E-03       8    2    1         0.1229020859E-01      0.7848646510E-01
          0                 5           2             8    2     1       0.2127209905E-03       8    2    1         0.5524171305E-02      0.3499328276E-01
          0                 6           1             8    2     1       0.9561292235E-04       8    2    1         0.2482985155E-02      0.1565631224E-01
          0                 7           1             8    2     1       0.4297559839E-04       8    2    1         0.1116041146E-02      0.7008747384E-02
          0                 8           1             8    2     1       0.1931640777E-04       8    2    1         0.5016321748E-03      0.3137949530E-02
          0                 9           1             8    2     1       0.8682201940E-05       8    2    1         0.2254704601E-03      0.1405001368E-02

    ------------------------------------------------
       NWT REQUIRED            9 OUTER ITERATIONS 
       AND A TOTAL OF         14 INNER ITERATIONS.
    ------------------------------------------------

 NO OUTPUT CONTROL FOR STRESS PERIOD    4   TIME STEP    9
 
 SOLVING FOR HEAD 
                                                   Max.-Head-Change                         Max.-Flux-Residual
  Residual-Control   Outer-Iter.   Inner-Iter.     Column Row Layer    Maximum-Head-Change  Column Row Layer    Maximum-Flux-Residual          L2-NORM 
          0                 1           2             2    2     1       0.8524359054E-02       2    2    1         0.4442687510E+00      0.1744816516E+01
          0                 2           2             8    2     1       0.2342063174E-02       2    2    1         0.7721051350E-01      0.4657586197E+00
          0                 3           2             8    2     1       0.1052705063E-02       8    2    1         0.2733774584E-01      0.1797102896E+00
          0                 4           2             8    2     1       0.4731664308E-03       8    2    1         0.1228770161E-01      0.7835719315E-01
          0                 5           2             8    2     1       0.2126768612E-03       8    2    1         0.5523033943E-02      0.3493560445E-01
          0                 6           1             8    2     1       0.9559290422E-04       8    2    1         0.2482469191E-02      0.1563053193E-01
          0                 7           1             8    2     1       0.4296651811E-04       8    2    1         0.1115807094E-02      0.6997220911E-02
          0                 8           1             8    2     1       0.1931228970E-04       8    2    1         0.5015260127E-03      0.3132795909E-02
          0                 9           1             8    2     1       0.8680333861E-05       8    2    1         0.2254223055E-03      0.1402698104E-02

    ------------------------------------------------
       NWT REQUIRED            9 OUTER ITERATIONS 
       AND A TOTAL OF         14 INNER ITERATIONS.
    ------------------------------------------------

 OUTPUT CONTROL FOR STRESS PERIOD    4   TIME STEP   10
    PRINT BUDGET
    SAVE BUDGET
 UBUDSV SAVING "         STORAGE" ON UNIT102 AT TIME STEP    10, STRESS PERIOD    4
 UBUDSV SAVING "   CONSTANT HEAD" ON UNIT102 AT TIME STEP    10, STRESS PERIOD    4
 UBUDSV SAVING "FLOW RIGHT FACE " ON UNIT102 AT TIME STEP    10, STRESS PERIOD    4
 UBUDSV SAVING "FLOW FRONT FACE " ON UNIT102 AT TIME STEP    10, STRESS PERIOD    4

  HEAD DEP BOUNDS   PERIOD    4   STEP    10
 BOUNDARY      1   LAYER   1   ROW    13   COL     1   RATE   -0.292510    
 BOUNDARY      2   LAYER   1   ROW    14   COL     9   RATE    0.278084    



 STREAM LISTING     PERIOD      4   STEP       10

 LAYER ROW COL. STREAM  RCH.  FLOW INTO     FLOW TO   FLOW OUT OF   OVRLND.     DIRECT     STREAM       STREAM     STREAM     STREAM   STREAMBED  STREAMBED
                SEG.NO.  NO.  STRM. RCH.    AQUIFER    STRM. RCH.    RUNOFF     PRECIP       ET          HEAD       DEPTH      WIDTH   CONDCTNC.   GRADIENT

   1    1    1     1     1    4.2000E+01  3.1070E-01   4.1689E+01  0.000E+00  0.000E+00  0.000E+00  1.09439E+03  1.346E+00  1.589E+01  7.149E-02  1.449E+00
   1    2    2     1     2    4.1689E+01  4.8125E-01   4.1208E+01  0.000E+00  0.000E+00  0.000E+00  1.08940E+03  1.343E+00  1.583E+01  1.108E-01  1.448E+00
   1    3    3     1     3    4.1208E+01  4.1050E-01   4.0798E+01  0.000E+00  0.000E+00  0.000E+00  1.08376E+03  1.340E+00  1.577E+01  9.459E-02  1.447E+00
   1    3    4     1     4    4.0798E+01  3.7807E-01   4.0419E+01  0.000E+00  0.000E+00  0.000E+00  1.07874E+03  1.337E+00  1.571E+01  8.718E-02  1.446E+00
   1    4    5     2     1    3.8419E+01  3.5555E-01   3.8064E+01  0.000E+00  0.000E+00  0.000E+00  1.07349E+03  1.558E+00  1.200E+01  7.800E-02  1.519E+00
   1    5    6     2     2    3.8064E+01  2.7304E-01   3.7791E+01  0.000E+00  0.000E+00  0.000E+00  1.06806E+03  1.551E+00  1.200E+01  6.000E-02  1.517E+00
   1    6    6     2     3    3.7791E+01  2.7264E-01   3.7518E+01  0.000E+00  0.000E+00  0.000E+00  1.06334E+03  1.544E+00  1.200E+01  6.000E-02  1.515E+00
   1    7    6     2     4    3.7518E+01  2.7223E-01   3.7246E+01  0.000E+00  0.000E+00  0.000E+00  1.05861E+03  1.537E+00  1.200E+01  6.000E-02  1.512E+00
   1    8    6     2     5    3.7246E+01  2.7183E-01   3.6974E+01  0.000E+00  0.000E+00  0.000E+00  1.05389E+03  1.531E+00  1.200E+01  6.000E-02  1.510E+00
   1    3    5     3     1    2.0000E+00  2.8252E-01   1.7175E+00  0.000E+00  0.000E+00  0.000E+00  1.07555E+03  1.909E+00  9.636E+00  7.227E-02  1.955E+00
   1    3    6     3     2    1.7175E+00  2.4905E-01   1.4684E+00  0.000E+00  0.000E+00  0.000E+00  1.07264E+03  1.727E+00  8.909E+00  6.682E-02  1.864E+00
   1    3    7     3     3    1.4684E+00  1.9718E-01   1.2712E+00  0.000E+00  0.000E+00  0.000E+00  1.06987E+03  1.555E+00  8.218E+00  5.547E-02  1.777E+00
   1    4    8     3     4    1.2712E+00  2.2567E-01   1.0456E+00  0.000E+00  0.000E+00  0.000E+00  1.06682E+03  1.364E+00  7.455E+00  6.709E-02  1.682E+00
   1    5    8     3     5    1.0456E+00  1.5790E-01   8.8768E-01  0.000E+00  0.000E+00  0.000E+00  1.06362E+03  1.164E+00  6.655E+00  4.991E-02  1.582E+00
   1    6    8     3     6    8.8768E-01  5.5980E-02   8.3170E-01  0.000E+00  0.000E+00  0.000E+00  1.06158E+03  1.036E+00  6.145E+00  1.844E-02  1.518E+00
   1    5   10     4     1    1.0000E+01  9.0919E-02   9.9091E+00  0.000E+00  0.000E+00  0.000E+00  1.07836E+03  6.368E-01  1.000E+01  2.500E-02  1.212E+00
   1    5    9     4     2    9.9091E+00  1.8158E-01   9.7275E+00  0.000E+00  0.000E+00  0.000E+00  1.07154E+03  6.315E-01  1.000E+01  5.000E-02  1.211E+00
   1    6    8     4     3    9.7275E+00  1.2689E-01   9.6006E+00  0.000E+00  0.000E+00  0.000E+00  1.06381E+03  6.256E-01  1.000E+01  3.500E-02  1.209E+00
   1    6    8     5     1    1.0432E+01  2.2686E-01   1.0205E+01  0.000E+00  0.000E+00  0.000E+00  1.05868E+03  6.790E-01  1.542E+01  6.166E-02  1.226E+00
   1    7    7     5     2    1.0205E+01  2.7894E-01   9.9265E+00  0.000E+00  0.000E+00  0.000E+00  1.05417E+03  6.732E-01  1.519E+01  7.594E-02  1.224E+00
   1    8    7     5     3    9.9265E+00  1.9221E-01   9.7343E+00  0.000E+00  0.000E+00  0.000E+00  1.04992E+03  6.676E-01  1.497E+01  5.241E-02  1.223E+00
   1    8    6     5     4    9.7343E+00  1.3577E-01   9.5985E+00  0.000E+00  0.000E+00  0.000E+00  1.04691E+03  6.637E-01  1.482E+01  3.706E-02  1.221E+00
   1    9    6     6     1    4.6573E+01  2.8622E-01   4.6287E+01  0.000E+00  0.000E+00  0.000E+00  1.04450E+03  1.770E+00  1.200E+01  6.000E-02  1.590E+00
   1   10    7     6     2    4.6287E+01  2.8583E-01   4.6001E+01  0.000E+00  0.000E+00  0.000E+00  1.03995E+03  1.764E+00  1.200E+01  6.000E-02  1.588E+00
   1   11    7     6     3    4.6001E+01  2.8543E-01   4.5715E+01  0.000E+00  0.000E+00  0.000E+00  1.03539E+03  1.757E+00  1.200E+01  6.000E-02  1.586E+00
   1   12    7     6     4    4.5715E+01  2.8504E-01   4.5430E+01  0.000E+00  0.000E+00  0.000E+00  1.03084E+03  1.751E+00  1.200E+01  6.000E-02  1.584E+00
   1   13    7     6     5    4.5430E+01  6.4838E-03   4.5424E+01  0.000E+00  0.000E+00  0.000E+00  1.02766E+03  1.747E+00  1.200E+01  2.400E-02  9.005E-02
   1   14    9     7     1    1.5000E+02  1.2231E+00   1.4878E+02  0.000E+00  0.000E+00  0.000E+00  1.03987E+03  2.288E+00  5.530E+01  5.593E-01  7.289E-01
   1   13    8     7     2    1.4878E+02  1.6804E+00   1.4710E+02  0.000E+00  0.000E+00  0.000E+00  1.03478E+03  2.280E+00  5.526E+01  6.148E-01  9.110E-01
   1   13    7     7     3    1.4710E+02  1.2877E+00   1.4581E+02  0.000E+00  0.000E+00  0.000E+00  1.02969E+03  2.272E+00  5.523E+01  5.585E-01  7.685E-01
   1   13    6     8     1    1.9123E+02  8.4223E-01   1.9039E+02  0.000E+00  0.000E+00  0.000E+00  1.02496E+03  3.083E+00  4.470E+01  4.555E-01  6.163E-01
   1   13    5     8     2    1.9039E+02  8.4975E-02   1.9031E+02  0.000E+00  0.000E+00  0.000E+00  1.01871E+03  3.080E+00  4.466E+01  4.551E-01  6.224E-02
   1   13    4     8     3    1.9031E+02 -2.7805E+00   1.9309E+02  0.000E+00  0.000E+00  0.000E+00  1.01246E+03  3.088E+00  4.478E+01  4.563E+00 -2.031E-01
   1   13    3     8     4    1.9309E+02 -3.8085E+00   1.9689E+02  0.000E+00  0.000E+00  0.000E+00  1.00623E+03  3.108E+00  4.507E+01  4.592E+00 -2.764E-01
   1   13    2     8     5    1.9689E+02 -2.6161E+00   1.9951E+02  0.000E+00  0.000E+00  0.000E+00  1.00000E+03  3.127E+00  4.534E+01  4.621E+00 -1.887E-01
   1   13    1     8     6    1.9951E+02 -1.8994E+00   2.0141E+02  0.000E+00  0.000E+00  0.000E+00  9.95015E+02  3.140E+00  4.554E+01  2.784E+00 -2.274E-01
   1    6    8     9     1    0.0000E+00  0.0000E+00   0.0000E+00  0.000E+00  0.000E+00  0.000E+00  1.07850E+03  0.000E+00  4.000E+00  0.000E+00  1.000E+00



 UBDSV3 SAVING "     NETRECHARGE" ON UNIT 100 AT TIME STEP    10, STRESS PERIOD   4
 UBDSV3 SAVING "    NETDISCHARGE" ON UNIT 101 AT TIME STEP    10, STRESS PERIOD   4
 UBDSV3 SAVING "           GW ET" ON UNIT  61 AT TIME STEP    10, STRESS PERIOD   4
 UBDSV3 SAVING "    UZF RECHARGE" ON UNIT  61 AT TIME STEP    10, STRESS PERIOD   4
 UBDSV3 SAVING " SURFACE LEAKAGE" ON UNIT  61 AT TIME STEP    10, STRESS PERIOD   4
 UBDSV3 SAVING "       HORT+DUNN" ON UNIT  61 AT TIME STEP    10, STRESS PERIOD   4
 UBDSV3 SAVING "  STORAGE CHANGE" ON UNIT  61 AT TIME STEP    10, STRESS PERIOD   4


UNSATURATED ZONE PACKAGE VOLUMETRIC BUDGET FOR  TIME STEP    10 STRESS PERIOD    4
  ------------------------------------------------------------------------------



     CUMULATIVE VOLUMES      L**3       RATES FOR THIS TIME STEP      L**3/T
     ------------------                 ------------------------

           IN:                                      IN:
           ---                                      ---
        INFILTRATION =      183082.4255          INFILTRATION =       0.0000E+00

          OUT:                                     OUT:
          ----                                     ----
              UZF ET =     1778273.9232                UZF ET =           0.2900
        UZF RECHARGE =   166755728.1989          UZF RECHARGE =          26.6435

            IN - OUT =  -168350919.6966              IN - OUT =         -26.9335

          STORAGE:                                 STORAGE:
          --------                                 --------
      STORAGE CHANGE =  -168346335.9950        STORAGE CHANGE =         -26.9333

 PERCENT DISCREPANCY IS DIFFERENCE BETWEEN IN-OUT MINUS CHANGE IN STORAGE
 DIVIDED BY THE AVERAGE OF IN AND OUT TIMES 100

 PERCENT DISCREPANCY =          -0.00     PERCENT DISCREPANCY =          -0.00






1
  VOLUMETRIC BUDGET FOR ENTIRE MODEL AT END OF TIME STEP   10, STRESS PERIOD   4
  ------------------------------------------------------------------------------

     CUMULATIVE VOLUMES      L**3       RATES FOR THIS TIME STEP      L**3/T
     ------------------                 ------------------------

           IN:                                      IN:
           ---                                      ---
             STORAGE     =     1005878.5625               STORAGE     =           0.0000
       CONSTANT HEAD     =           0.0000         CONSTANT HEAD     =           0.0000
               WELLS     =           0.0000                 WELLS     =           0.0000
     HEAD DEP BOUNDS     =     1749978.8750       HEAD DEP BOUNDS     =           0.2781
      STREAM LEAKAGE     =    67279728.0000        STREAM LEAKAGE     =          11.6946
        UZF RECHARGE     =   166755728.0000          UZF RECHARGE     =          26.6435
               GW ET     =           0.0000                 GW ET     =           0.0000
     SURFACE LEAKAGE     =           0.0000       SURFACE LEAKAGE     =           0.0000
    SUPPLEMENTARY WELLS  =           0.0000      SUPPLEMENTARY WELLS  =           0.0000

                TOTAL IN =   236791312.0000                  TOTAL IN =          38.6162

          OUT:                                     OUT:
          ----                                     ----
             STORAGE     =   165011008.0000               STORAGE     =          27.2144
       CONSTANT HEAD     =           0.0000         CONSTANT HEAD     =           0.0000
               WELLS     =           0.0000                 WELLS     =           0.0000
     HEAD DEP BOUNDS     =     1795629.3750       HEAD DEP BOUNDS     =           0.2925
      STREAM LEAKAGE     =    69770528.0000        STREAM LEAKAGE     =          11.1045
        UZF RECHARGE     =           0.0000          UZF RECHARGE     =           0.0000
               GW ET     =      151085.3438                 GW ET     =       3.0357E-10
     SURFACE LEAKAGE     =           0.0000       SURFACE LEAKAGE     =           0.0000
    SUPPLEMENTARY WELLS  =       31277.0352      SUPPLEMENTARY WELLS  =           0.0000

               TOTAL OUT =   236759536.0000                 TOTAL OUT =          38.6114

                IN - OUT =       31776.0000                  IN - OUT =       4.7531E-03

     PERCENT DISCREPANCY =           0.01         PERCENT DISCREPANCY =           0.01






         TIME SUMMARY AT END OF TIME STEP   10 IN STRESS PERIOD    4
                    SECONDS     MINUTES      HOURS       DAYS        YEARS
                    -----------------------------------------------------------
   TIME STEP LENGTH  87600.      1460.0      24.333      1.0139     2.77588E-03
 STRESS PERIOD TIME 8.76000E+05  14600.      243.33      10.139     2.77588E-02
         TOTAL TIME 6.21840E+06 1.03640E+05  1727.3      71.972     0.19705    
1
 
 SOLVING FOR HEAD 
                                                   Max.-Head-Change                         Max.-Flux-Residual
  Residual-Control   Outer-Iter.   Inner-Iter.     Column Row Layer    Maximum-Head-Change  Column Row Layer    Maximum-Flux-Residual          L2-NORM 
          0                 1           2             2    2     1       0.8488601322E-02       2    2    1         0.4423858208E+00      0.1738335611E+01
          0                 2           2             8    2     1       0.2341534697E-02       2    2    1         0.7688856736E-01      0.4649624955E+00
          0                 3           2             8    2     1       0.1052465578E-02       8    2    1         0.2733156801E-01      0.1794157684E+00
          0                 4           2             8    2     1       0.4730579092E-03       8    2    1         0.1228490206E-01      0.7822739425E-01
          0                 5           2             8    2     1       0.2126276874E-03       8    2    1         0.5521765359E-02      0.3487763681E-01
          0                 6           1             8    2     1       0.9557062357E-04       8    2    1         0.2481894371E-02      0.1560461750E-01
          0                 7           1             8    2     1       0.4295642313E-04       8    2    1         0.1115546641E-02      0.6985636621E-02
          0                 8           1             8    2     1       0.1930771566E-04       8    2    1         0.5014080048E-03      0.3127618370E-02
          0                 9           1             8    2     1       0.8678261941E-05       8    2    1         0.2253688427E-03      0.1400383528E-02

    ------------------------------------------------
       NWT REQUIRED            9 OUTER ITERATIONS 
       AND A TOTAL OF         14 INNER ITERATIONS.
    ------------------------------------------------

 NO OUTPUT CONTROL FOR STRESS PERIOD    4   TIME STEP   11
 
 SOLVING FOR HEAD 
                                                   Max.-Head-Change                         Max.-Flux-Residual
  Residual-Control   Outer-Iter.   Inner-Iter.     Column Row Layer    Maximum-Head-Change  Column Row Layer    Maximum-Flux-Residual          L2-NORM 
          0                 1           2             2    2     1       0.8453459829E-02       2    2    1         0.4405354323E+00      0.1732552388E+01
          0                 2           2             8    2     1       0.2341050756E-02       2    2    1         0.7657216037E-01      0.4641873777E+00
          0                 3           2             8    2     1       0.1052246098E-02       8    2    1         0.2732590996E-01      0.1791222369E+00
          0                 4           2             8    2     1       0.4729583755E-03       8    2    1         0.1228233602E-01      0.7809772775E-01
          0                 5           2             8    2     1       0.2125825513E-03       8    2    1         0.5520601671E-02      0.3481971168E-01
          0                 6           1             8    2     1       0.9555015674E-04       8    2    1         0.2481366673E-02      0.1557872410E-01
          0                 7           1             8    2     1       0.4294714301E-04       8    2    1         0.1115307361E-02      0.6974061447E-02
          0                 8           1             8    2     1       0.1930350805E-04       8    2    1         0.5012995120E-03      0.3122444305E-02
          0                 9           1             8    2     1       0.8676354594E-05       8    2    1         0.2253196556E-03      0.1398071481E-02

    ------------------------------------------------
       NWT REQUIRED            9 OUTER ITERATIONS 
       AND A TOTAL OF         14 INNER ITERATIONS.
    ------------------------------------------------

 NO OUTPUT CONTROL FOR STRESS PERIOD    4   TIME STEP   12
 
 SOLVING FOR HEAD 
                                                   Max.-Head-Change                         Max.-Flux-Residual
  Residual-Control   Outer-Iter.   Inner-Iter.     Column Row Layer    Maximum-Head-Change  Column Row Layer    Maximum-Flux-Residual          L2-NORM 
          0                 1           2             2    2     1       0.8419008115E-02       2    2    1         0.4387214074E+00      0.1727351377E+01
          0                 2           2             8    2     1       0.2340510858E-02       2    2    1         0.7626195967E-01      0.4634269565E+00
          0                 3           2             8    2     1       0.1052001468E-02       8    2    1         0.2731959876E-01      0.1788276717E+00
          0                 4           2             8    2     1       0.4728475378E-03       8    2    1         0.1227947642E-01      0.7796735637E-01
          0                 5           2             8    2     1       0.2125323348E-03       8    2    1         0.5519306041E-02      0.3476146827E-01
          0                 6           1             8    2     1       0.9552740664E-04       8    2    1         0.2480779681E-02      0.1555268751E-01
          0                 7           1             8    2     1       0.4293683718E-04       8    2    1         0.1115041433E-02      0.6962423000E-02
          0                 8           1             8    2     1       0.1929883922E-04       8    2    1         0.5011790375E-03      0.3117241514E-02
          0                 9           1             8    2     1       0.8674239405E-05       8    2    1         0.2252650783E-03      0.1395745376E-02

    ------------------------------------------------
       NWT REQUIRED            9 OUTER ITERATIONS 
       AND A TOTAL OF         14 INNER ITERATIONS.
    ------------------------------------------------

 NO OUTPUT CONTROL FOR STRESS PERIOD    4   TIME STEP   13
 
 SOLVING FOR HEAD 
                                                   Max.-Head-Change                         Max.-Flux-Residual
  Residual-Control   Outer-Iter.   Inner-Iter.     Column Row Layer    Maximum-Head-Change  Column Row Layer    Maximum-Flux-Residual          L2-NORM 
          0                 1           2             2    2     1       0.8385143043E-02       2    2    1         0.4369383599E+00      0.1722633489E+01
          0                 2           2             8    2     1       0.2339965296E-02       2    2    1         0.7595703221E-01      0.4626823877E+00
          0                 3           2             8    2     1       0.1051754289E-02       8    2    1         0.2731322144E-01      0.1785345013E+00
          0                 4           2             8    2     1       0.4727355525E-03       8    2    1         0.1227658705E-01      0.7783738836E-01
          0                 5           2             8    2     1       0.2124816020E-03       8    2    1         0.5517997017E-02      0.3470338780E-01
          0                 6           1             8    2     1       0.9550442418E-04       8    2    1         0.2480186657E-02      0.1552672555E-01
          0                 7           1             8    2     1       0.4292642606E-04       8    2    1         0.1114772787E-02      0.6950818682E-02
          0                 8           1             8    2     1       0.1929412338E-04       8    2    1         0.5010573492E-03      0.3112054469E-02
          0                 9           1             8    2     1       0.8672103707E-05       8    2    1         0.2252099630E-03      0.1393426447E-02

    ------------------------------------------------
       NWT REQUIRED            9 OUTER ITERATIONS 
       AND A TOTAL OF         14 INNER ITERATIONS.
    ------------------------------------------------

 NO OUTPUT CONTROL FOR STRESS PERIOD    4   TIME STEP   14
 
 SOLVING FOR HEAD 
                                                   Max.-Head-Change                         Max.-Flux-Residual
  Residual-Control   Outer-Iter.   Inner-Iter.     Column Row Layer    Maximum-Head-Change  Column Row Layer    Maximum-Flux-Residual          L2-NORM 
          0                 1           2             2    2     1       0.8352026737E-02       2    2    1         0.4351947483E+00      0.1717735373E+01
          0                 2           2             8    2     1       0.2339463830E-02       2    2    1         0.7565884558E-01      0.4618293619E+00
          0                 3           2             8    2     1       0.1051526812E-02       8    2    1         0.2730735826E-01      0.1782276289E+00
          0                 4           2             8    2     1       0.4726323715E-03       8    2    1         0.1227392742E-01      0.7770571844E-01
          0                 5           2             8    2     1       0.2124348035E-03       8    2    1         0.5516790651E-02      0.3464494680E-01
          0                 6           1             8    2     1       0.9548319976E-04       8    2    1         0.2479639506E-02      0.1550063463E-01
          0                 7           1             8    2     1       0.4291680103E-04       8    2    1         0.1114524643E-02      0.6939158158E-02
          0                 8           1             8    2     1       0.1928975869E-04       8    2    1         0.5009448159E-03      0.3106842523E-02
          0                 9           1             8    2     1       0.8670124578E-05       8    2    1         0.2251589330E-03      0.1391097133E-02

    ------------------------------------------------
       NWT REQUIRED            9 OUTER ITERATIONS 
       AND A TOTAL OF         14 INNER ITERATIONS.
    ------------------------------------------------

 OUTPUT CONTROL FOR STRESS PERIOD    4   TIME STEP   15
    PRINT BUDGET
    PRINT HEAD FOR ALL LAYERS
    SAVE HEAD FOR ALL LAYERS
    SAVE BUDGET
 UBUDSV SAVING "         STORAGE" ON UNIT102 AT TIME STEP    15, STRESS PERIOD    4
 UBUDSV SAVING "   CONSTANT HEAD" ON UNIT102 AT TIME STEP    15, STRESS PERIOD    4
 UBUDSV SAVING "FLOW RIGHT FACE " ON UNIT102 AT TIME STEP    15, STRESS PERIOD    4
 UBUDSV SAVING "FLOW FRONT FACE " ON UNIT102 AT TIME STEP    15, STRESS PERIOD    4

  HEAD DEP BOUNDS   PERIOD    4   STEP    15
 BOUNDARY      1   LAYER   1   ROW    13   COL     1   RATE   -0.293035    
 BOUNDARY      2   LAYER   1   ROW    14   COL     9   RATE    0.277671    



 STREAM LISTING     PERIOD      4   STEP       15

 LAYER ROW COL. STREAM  RCH.  FLOW INTO     FLOW TO   FLOW OUT OF   OVRLND.     DIRECT     STREAM       STREAM     STREAM     STREAM   STREAMBED  STREAMBED
                SEG.NO.  NO.  STRM. RCH.    AQUIFER    STRM. RCH.    RUNOFF     PRECIP       ET          HEAD       DEPTH      WIDTH   CONDCTNC.   GRADIENT

   1    1    1     1     1    4.2000E+01  3.1070E-01   4.1689E+01  0.000E+00  0.000E+00  0.000E+00  1.09439E+03  1.346E+00  1.589E+01  7.149E-02  1.449E+00
   1    2    2     1     2    4.1689E+01  4.8125E-01   4.1208E+01  0.000E+00  0.000E+00  0.000E+00  1.08940E+03  1.343E+00  1.583E+01  1.108E-01  1.448E+00
   1    3    3     1     3    4.1208E+01  4.1050E-01   4.0798E+01  0.000E+00  0.000E+00  0.000E+00  1.08376E+03  1.340E+00  1.577E+01  9.459E-02  1.447E+00
   1    3    4     1     4    4.0798E+01  3.7807E-01   4.0419E+01  0.000E+00  0.000E+00  0.000E+00  1.07874E+03  1.337E+00  1.571E+01  8.718E-02  1.446E+00
   1    4    5     2     1    3.8419E+01  3.5555E-01   3.8064E+01  0.000E+00  0.000E+00  0.000E+00  1.07349E+03  1.558E+00  1.200E+01  7.800E-02  1.519E+00
   1    5    6     2     2    3.8064E+01  2.7304E-01   3.7791E+01  0.000E+00  0.000E+00  0.000E+00  1.06806E+03  1.551E+00  1.200E+01  6.000E-02  1.517E+00
   1    6    6     2     3    3.7791E+01  2.7264E-01   3.7518E+01  0.000E+00  0.000E+00  0.000E+00  1.06334E+03  1.544E+00  1.200E+01  6.000E-02  1.515E+00
   1    7    6     2     4    3.7518E+01  2.7223E-01   3.7246E+01  0.000E+00  0.000E+00  0.000E+00  1.05861E+03  1.537E+00  1.200E+01  6.000E-02  1.512E+00
   1    8    6     2     5    3.7246E+01  2.7183E-01   3.6974E+01  0.000E+00  0.000E+00  0.000E+00  1.05389E+03  1.531E+00  1.200E+01  6.000E-02  1.510E+00
   1    3    5     3     1    2.0000E+00  2.8252E-01   1.7175E+00  0.000E+00  0.000E+00  0.000E+00  1.07555E+03  1.909E+00  9.636E+00  7.227E-02  1.955E+00
   1    3    6     3     2    1.7175E+00  2.4905E-01   1.4684E+00  0.000E+00  0.000E+00  0.000E+00  1.07264E+03  1.727E+00  8.909E+00  6.682E-02  1.864E+00
   1    3    7     3     3    1.4684E+00  1.9718E-01   1.2712E+00  0.000E+00  0.000E+00  0.000E+00  1.06987E+03  1.555E+00  8.218E+00  5.547E-02  1.777E+00
   1    4    8     3     4    1.2712E+00  2.2567E-01   1.0456E+00  0.000E+00  0.000E+00  0.000E+00  1.06682E+03  1.364E+00  7.455E+00  6.709E-02  1.682E+00
   1    5    8     3     5    1.0456E+00  1.5790E-01   8.8768E-01  0.000E+00  0.000E+00  0.000E+00  1.06362E+03  1.164E+00  6.655E+00  4.991E-02  1.582E+00
   1    6    8     3     6    8.8768E-01  5.5980E-02   8.3170E-01  0.000E+00  0.000E+00  0.000E+00  1.06158E+03  1.036E+00  6.145E+00  1.844E-02  1.518E+00
   1    5   10     4     1    1.0000E+01  9.0919E-02   9.9091E+00  0.000E+00  0.000E+00  0.000E+00  1.07836E+03  6.368E-01  1.000E+01  2.500E-02  1.212E+00
   1    5    9     4     2    9.9091E+00  1.8158E-01   9.7275E+00  0.000E+00  0.000E+00  0.000E+00  1.07154E+03  6.315E-01  1.000E+01  5.000E-02  1.211E+00
   1    6    8     4     3    9.7275E+00  1.2689E-01   9.6006E+00  0.000E+00  0.000E+00  0.000E+00  1.06381E+03  6.256E-01  1.000E+01  3.500E-02  1.209E+00
   1    6    8     5     1    1.0432E+01  2.2686E-01   1.0205E+01  0.000E+00  0.000E+00  0.000E+00  1.05868E+03  6.790E-01  1.542E+01  6.166E-02  1.226E+00
   1    7    7     5     2    1.0205E+01  2.7894E-01   9.9265E+00  0.000E+00  0.000E+00  0.000E+00  1.05417E+03  6.732E-01  1.519E+01  7.594E-02  1.224E+00
   1    8    7     5     3    9.9265E+00  1.9221E-01   9.7343E+00  0.000E+00  0.000E+00  0.000E+00  1.04992E+03  6.676E-01  1.497E+01  5.241E-02  1.223E+00
   1    8    6     5     4    9.7343E+00  1.3577E-01   9.5985E+00  0.000E+00  0.000E+00  0.000E+00  1.04691E+03  6.637E-01  1.482E+01  3.706E-02  1.221E+00
   1    9    6     6     1    4.6573E+01  2.8622E-01   4.6287E+01  0.000E+00  0.000E+00  0.000E+00  1.04450E+03  1.770E+00  1.200E+01  6.000E-02  1.590E+00
   1   10    7     6     2    4.6287E+01  2.8583E-01   4.6001E+01  0.000E+00  0.000E+00  0.000E+00  1.03995E+03  1.764E+00  1.200E+01  6.000E-02  1.588E+00
   1   11    7     6     3    4.6001E+01  2.8543E-01   4.5715E+01  0.000E+00  0.000E+00  0.000E+00  1.03539E+03  1.757E+00  1.200E+01  6.000E-02  1.586E+00
   1   12    7     6     4    4.5715E+01  2.8504E-01   4.5430E+01  0.000E+00  0.000E+00  0.000E+00  1.03084E+03  1.751E+00  1.200E+01  6.000E-02  1.584E+00
   1   13    7     6     5    4.5430E+01  5.9506E-03   4.5424E+01  0.000E+00  0.000E+00  0.000E+00  1.02766E+03  1.747E+00  1.200E+01  2.400E-02  8.265E-02
   1   14    9     7     1    1.5000E+02  1.2170E+00   1.4878E+02  0.000E+00  0.000E+00  0.000E+00  1.03987E+03  2.288E+00  5.530E+01  5.593E-01  7.253E-01
   1   13    8     7     2    1.4878E+02  1.6706E+00   1.4711E+02  0.000E+00  0.000E+00  0.000E+00  1.03478E+03  2.280E+00  5.526E+01  6.148E-01  9.057E-01
   1   13    7     7     3    1.4711E+02  1.2754E+00   1.4584E+02  0.000E+00  0.000E+00  0.000E+00  1.02969E+03  2.273E+00  5.523E+01  5.586E-01  7.611E-01
   1   13    6     8     1    1.9126E+02  8.3198E-01   1.9043E+02  0.000E+00  0.000E+00  0.000E+00  1.02496E+03  3.083E+00  4.470E+01  4.556E-01  6.088E-01
   1   13    5     8     2    1.9043E+02  7.6289E-02   1.9035E+02  0.000E+00  0.000E+00  0.000E+00  1.01871E+03  3.080E+00  4.466E+01  4.551E-01  5.587E-02
   1   13    4     8     3    1.9035E+02 -2.8427E+00   1.9320E+02  0.000E+00  0.000E+00  0.000E+00  1.01246E+03  3.089E+00  4.479E+01  4.564E+00 -2.076E-01
   1   13    3     8     4    1.9320E+02 -3.8664E+00   1.9706E+02  0.000E+00  0.000E+00  0.000E+00  1.00623E+03  3.109E+00  4.508E+01  4.594E+00 -2.806E-01
   1   13    2     8     5    1.9706E+02 -2.6655E+00   1.9973E+02  0.000E+00  0.000E+00  0.000E+00  1.00000E+03  3.128E+00  4.536E+01  4.622E+00 -1.922E-01
   1   13    1     8     6    1.9973E+02 -1.9349E+00   2.0166E+02  0.000E+00  0.000E+00  0.000E+00  9.95017E+02  3.142E+00  4.556E+01  2.785E+00 -2.316E-01
   1    6    8     9     1    0.0000E+00  0.0000E+00   0.0000E+00  0.000E+00  0.000E+00  0.000E+00  1.07850E+03  0.000E+00  4.000E+00  0.000E+00  1.000E+00



 UBDSV3 SAVING "     NETRECHARGE" ON UNIT 100 AT TIME STEP    15, STRESS PERIOD   4
 UBDSV3 SAVING "    NETDISCHARGE" ON UNIT 101 AT TIME STEP    15, STRESS PERIOD   4
 UBDSV3 SAVING "           GW ET" ON UNIT  61 AT TIME STEP    15, STRESS PERIOD   4
 UBDSV3 SAVING "    UZF RECHARGE" ON UNIT  61 AT TIME STEP    15, STRESS PERIOD   4
 UBDSV3 SAVING " SURFACE LEAKAGE" ON UNIT  61 AT TIME STEP    15, STRESS PERIOD   4
 UBDSV3 SAVING "       HORT+DUNN" ON UNIT  61 AT TIME STEP    15, STRESS PERIOD   4
 UBDSV3 SAVING "  STORAGE CHANGE" ON UNIT  61 AT TIME STEP    15, STRESS PERIOD   4


UNSATURATED ZONE PACKAGE VOLUMETRIC BUDGET FOR  TIME STEP    15 STRESS PERIOD    4
  ------------------------------------------------------------------------------



     CUMULATIVE VOLUMES      L**3       RATES FOR THIS TIME STEP      L**3/T
     ------------------                 ------------------------

           IN:                                      IN:
           ---                                      ---
        INFILTRATION =      183082.4255          INFILTRATION =       0.0000E+00

          OUT:                                     OUT:
          ----                                     ----
              UZF ET =     1905293.9232                UZF ET =           0.2900
        UZF RECHARGE =   178396433.7578          UZF RECHARGE =          26.5289

            IN - OUT =  -180118645.2555              IN - OUT =         -26.8189

          STORAGE:                                 STORAGE:
          --------                                 --------
      STORAGE CHANGE =  -180114002.4130        STORAGE CHANGE =         -26.8188

 PERCENT DISCREPANCY IS DIFFERENCE BETWEEN IN-OUT MINUS CHANGE IN STORAGE
 DIVIDED BY THE AVERAGE OF IN AND OUT TIMES 100

 PERCENT DISCREPANCY =          -0.00     PERCENT DISCREPANCY =          -0.00






1
              HEAD IN LAYER   1 AT END OF TIME STEP    15 IN STRESS PERIOD    4
  -----------------------------------------------------------------------------

           1       2       3       4       5       6       7       8       9      10
 ...................................................................................
   1  1034.35 1033.16 6999.00 6999.00 6999.00 6999.00 6999.00 6999.00 6999.00 6999.00
   2  1033.68 1032.29 1031.48 6999.00 6999.00 1033.07 1033.27 1033.30 6999.00 6999.00
   3  6999.00 1031.46 1031.06 1030.80 1031.39 1032.16 1032.83 1032.91 6999.00 6999.00
   4  1030.73 1030.73 1030.46 1030.10 1030.20 1030.30 1031.10 1032.41 1032.27 6999.00
   5  1030.25 1029.91 1029.66 1029.37 1029.49 1029.80 1030.10 1030.73 1031.48 1032.00
   6  1029.64 1029.10 1028.80 1028.57 1028.71 1029.16 1029.58 1030.27 1031.15 1032.21
   7  1029.08 1028.05 1027.76 1027.59 1027.78 1028.30 1028.85 1029.54 1030.58 6999.00
   8  6999.00 1026.52 1026.43 1026.37 1026.61 1027.18 1027.70 1028.90 1029.62 6999.00
   9  6999.00 1024.28 1024.49 1024.71 1025.10 1025.81 1026.37 1027.53 1028.73 6999.00
  10  6999.00 1021.20 1021.85 1022.67 1023.46 1024.50 1025.46 1026.83 1028.52 1029.13
  11  6999.00 1016.42 1017.67 1020.06 1021.71 1023.47 1025.06 1027.10 1029.36 6999.00
  12  1002.59 1008.59 1012.51 1016.52 1019.84 1022.86 1025.39 1028.94 1032.02 6999.00
  13   995.71 1000.58 1007.08 1013.09 1018.54 1023.13 1027.41 1032.06 1034.93 6999.00
  14  6999.00 1006.44 1009.45 1014.10 1018.88 1023.28 1028.19 1033.60 1037.69 6999.00
  15  6999.00 6999.00 1013.15 1015.87 1019.33 1022.34 6999.00 6999.00 6999.00 6999.00

 HEAD WILL BE SAVED ON UNIT   62 AT END OF TIME STEP   15, STRESS PERIOD    4
1
  VOLUMETRIC BUDGET FOR ENTIRE MODEL AT END OF TIME STEP   15, STRESS PERIOD   4
  ------------------------------------------------------------------------------

     CUMULATIVE VOLUMES      L**3       RATES FOR THIS TIME STEP      L**3/T
     ------------------                 ------------------------

           IN:                                      IN:
           ---                                      ---
             STORAGE     =     1005878.5625               STORAGE     =           0.0000
       CONSTANT HEAD     =           0.0000         CONSTANT HEAD     =           0.0000
               WELLS     =           0.0000                 WELLS     =           0.0000
     HEAD DEP BOUNDS     =     1871670.8750       HEAD DEP BOUNDS     =           0.2777
      STREAM LEAKAGE     =    72389384.0000        STREAM LEAKAGE     =          11.6470
        UZF RECHARGE     =   178396432.0000          UZF RECHARGE     =          26.5289
               GW ET     =           0.0000                 GW ET     =           0.0000
     SURFACE LEAKAGE     =           0.0000       SURFACE LEAKAGE     =           0.0000
    SUPPLEMENTARY WELLS  =           0.0000      SUPPLEMENTARY WELLS  =           0.0000

                TOTAL IN =   253663360.0000                  TOTAL IN =          38.4536

          OUT:                                     OUT:
          ----                                     ----
             STORAGE     =   176832464.0000               STORAGE     =          26.8464
       CONSTANT HEAD     =           0.0000         CONSTANT HEAD     =           0.0000
               WELLS     =           0.0000                 WELLS     =           0.0000
     HEAD DEP BOUNDS     =     1923891.7500       HEAD DEP BOUNDS     =           0.2930
      STREAM LEAKAGE     =    74690784.0000        STREAM LEAKAGE     =          11.3094
        UZF RECHARGE     =           0.0000          UZF RECHARGE     =           0.0000
               GW ET     =      151085.3438                 GW ET     =       3.0359E-10
     SURFACE LEAKAGE     =           0.0000       SURFACE LEAKAGE     =           0.0000
    SUPPLEMENTARY WELLS  =       31277.0352      SUPPLEMENTARY WELLS  =           0.0000

               TOTAL OUT =   253629504.0000                 TOTAL OUT =          38.4489

                IN - OUT =       33856.0000                  IN - OUT =       4.7073E-03

     PERCENT DISCREPANCY =           0.01         PERCENT DISCREPANCY =           0.01






         TIME SUMMARY AT END OF TIME STEP   15 IN STRESS PERIOD    4
                    SECONDS     MINUTES      HOURS       DAYS        YEARS
                    -----------------------------------------------------------
   TIME STEP LENGTH  87600.      1460.0      24.333      1.0139     2.77588E-03
 STRESS PERIOD TIME 1.31400E+06  21900.      365.00      15.208     4.16381E-02
         TOTAL TIME 6.65640E+06 1.10940E+05  1849.0      77.042     0.21093    
1
 
 SOLVING FOR HEAD 
                                                   Max.-Head-Change                         Max.-Flux-Residual
  Residual-Control   Outer-Iter.   Inner-Iter.     Column Row Layer    Maximum-Head-Change  Column Row Layer    Maximum-Flux-Residual          L2-NORM 
          0                 1           2             2    2     1       0.8319467729E-02       2    2    1         0.4334805642E+00      0.1713041838E+01
          0                 2           2             8    2     1       0.2338906434E-02       2    2    1         0.7536566841E-01      0.4610306092E+00
          0                 3           2             8    2     1       0.1051274308E-02       8    2    1         0.2730084277E-01      0.1779280455E+00
          0                 4           2             8    2     1       0.4725179907E-03       8    2    1         0.1227097588E-01      0.7757447845E-01
          0                 5           2             8    2     1       0.2123829937E-03       8    2    1         0.5515453666E-02      0.3458641981E-01
          0                 6           1             8    2     1       0.9545973259E-04       8    2    1         0.2479033899E-02      0.1547447823E-01
          0                 7           1             8    2     1       0.4290617207E-04       8    2    1         0.1114250340E-02      0.6927467974E-02
          0                 8           1             8    2     1       0.1928494530E-04       8    2    1         0.5008205829E-03      0.3101617861E-02
          0                 9           1             8    2     1       0.8667944360E-05       8    2    1         0.2251026661E-03      0.1388761979E-02

    ------------------------------------------------
       NWT REQUIRED            9 OUTER ITERATIONS 
       AND A TOTAL OF         14 INNER ITERATIONS.
    ------------------------------------------------

 NO OUTPUT CONTROL FOR STRESS PERIOD    4   TIME STEP   16
 
 SOLVING FOR HEAD 
                                                   Max.-Head-Change                         Max.-Flux-Residual
  Residual-Control   Outer-Iter.   Inner-Iter.     Column Row Layer    Maximum-Head-Change  Column Row Layer    Maximum-Flux-Residual          L2-NORM 
          0                 1           2             2    2     1       0.8287452737E-02       2    2    1         0.4317950892E+00      0.1709413941E+01
          0                 2           2             8    2     1       0.2338393372E-02       2    2    1         0.7507738307E-01      0.4603232692E+00
          0                 3           2             8    2     1       0.1051041671E-02       8    2    1         0.2729484449E-01      0.1776360148E+00
          0                 4           2             8    2     1       0.4724125131E-03       8    2    1         0.1226825612E-01      0.7744432734E-01
          0                 5           2             8    2     1       0.2123351727E-03       8    2    1         0.5514220534E-02      0.3452823334E-01
          0                 6           1             8    2     1       0.9543805347E-04       8    2    1         0.2478474842E-02      0.1544846828E-01
          0                 7           1             8    2     1       0.4289634520E-04       8    2    1         0.1113996902E-02      0.6915843744E-02
          0                 8           1             8    2     1       0.1928049058E-04       8    2    1         0.5007056917E-03      0.3096422759E-02
          0                 9           1             8    2     1       0.8665925464E-05       8    2    1         0.2250505882E-03      0.1386442619E-02

    ------------------------------------------------
       NWT REQUIRED            9 OUTER ITERATIONS 
       AND A TOTAL OF         14 INNER ITERATIONS.
    ------------------------------------------------

 NO OUTPUT CONTROL FOR STRESS PERIOD    4   TIME STEP   17
 
 SOLVING FOR HEAD 
                                                   Max.-Head-Change                         Max.-Flux-Residual
  Residual-Control   Outer-Iter.   Inner-Iter.     Column Row Layer    Maximum-Head-Change  Column Row Layer    Maximum-Flux-Residual          L2-NORM 
          0                 1           2             2    2     1       0.8256057470E-02       2    2    1         0.4301422777E+00      0.1704669494E+01
          0                 2           2             8    2     1       0.2337824135E-02       2    2    1         0.7479467447E-01      0.4593983198E+00
          0                 3           2             8    2     1       0.1050783788E-02       8    2    1         0.2728819050E-01      0.1773221359E+00
          0                 4           2             8    2     1       0.4722956903E-03       8    2    1         0.1226524168E-01      0.7731172692E-01
          0                 5           2             8    2     1       0.2122822540E-03       8    2    1         0.5512854982E-02      0.3446949119E-01
          0                 6           1             8    2     1       0.9541408332E-04       8    2    1         0.2477856273E-02      0.1542225305E-01
          0                 7           1             8    2     1       0.4288548788E-04       8    2    1         0.1113716717E-02      0.6904129166E-02
          0                 8           1             8    2     1       0.1927557339E-04       8    2    1         0.5005787922E-03      0.3091187554E-02
          0                 9           1             8    2     1       0.8663698475E-05       8    2    1         0.2249931154E-03      0.1384100394E-02

    ------------------------------------------------
       NWT REQUIRED            9 OUTER ITERATIONS 
       AND A TOTAL OF         14 INNER ITERATIONS.
    ------------------------------------------------

 NO OUTPUT CONTROL FOR STRESS PERIOD    4   TIME STEP   18
 
 SOLVING FOR HEAD 
                                                   Max.-Head-Change                         Max.-Flux-Residual
  Residual-Control   Outer-Iter.   Inner-Iter.     Column Row Layer    Maximum-Head-Change  Column Row Layer    Maximum-Flux-Residual          L2-NORM 
          0                 1           2             2    2     1       0.8225268285E-02       2    2    1         0.4285214304E+00      0.1700802666E+01
          0                 2           2             8    2     1       0.2337249279E-02       2    2    1         0.7451741778E-01      0.4586475073E+00
          0                 3           2             8    2     1       0.1050523434E-02       8    2    1         0.2728147120E-01      0.1770263085E+00
          0                 4           2             8    2     1       0.4721777804E-03       8    2    1         0.1226219851E-01      0.7718090049E-01
          0                 5           2             8    2     1       0.2122288573E-03       8    2    1         0.5511476797E-02      0.3441106371E-01
          0                 6           1             8    2     1       0.9538990334E-04       8    2    1         0.2477232157E-02      0.1539613990E-01
          0                 7           1             8    2     1       0.4287453877E-04       8    2    1         0.1113434096E-02      0.6892457489E-02
          0                 8           1             8    2     1       0.1927061569E-04       8    2    1         0.5004508166E-03      0.3085971875E-02
          0                 9           1             8    2     1       0.8661453728E-05       8    2    1         0.2249351690E-03      0.1381769923E-02

    ------------------------------------------------
       NWT REQUIRED            9 OUTER ITERATIONS 
       AND A TOTAL OF         14 INNER ITERATIONS.
    ------------------------------------------------

 NO OUTPUT CONTROL FOR STRESS PERIOD    4   TIME STEP   19
 
 SOLVING FOR HEAD 
                                                   Max.-Head-Change                         Max.-Flux-Residual
  Residual-Control   Outer-Iter.   Inner-Iter.     Column Row Layer    Maximum-Head-Change  Column Row Layer    Maximum-Flux-Residual          L2-NORM 
          0                 1           2             2    2     1       0.8195072057E-02       2    2    1         0.4269318363E+00      0.1697867174E+01
          0                 2           2             8    2     1       0.2336718577E-02       2    2    1         0.7424549688E-01      0.4579499650E+00
          0                 3           2             8    2     1       0.1050282812E-02       8    2    1         0.2727526674E-01      0.1767331812E+00
          0                 4           2             8    2     1       0.4720686890E-03       8    2    1         0.1225938541E-01      0.7704984039E-01
          0                 5           2             8    2     1       0.2121794018E-03       8    2    1         0.5510201432E-02      0.3435245458E-01
          0                 6           1             8    2     1       0.9536748438E-04       8    2    1         0.2476653983E-02      0.1536994637E-01
          0                 7           1             8    2     1       0.4286437676E-04       8    2    1         0.1113172008E-02      0.6880750789E-02
          0                 8           1             8    2     1       0.1926600965E-04       8    2    1         0.5003320183E-03      0.3080739940E-02
          0                 9           1             8    2     1       0.8659366052E-05       8    2    1         0.2248813243E-03      0.1379431127E-02

    ------------------------------------------------
       NWT REQUIRED            9 OUTER ITERATIONS 
       AND A TOTAL OF         14 INNER ITERATIONS.
    ------------------------------------------------

 NO OUTPUT CONTROL FOR STRESS PERIOD    4   TIME STEP   20
 
 SOLVING FOR HEAD 
                                                   Max.-Head-Change                         Max.-Flux-Residual
  Residual-Control   Outer-Iter.   Inner-Iter.     Column Row Layer    Maximum-Head-Change  Column Row Layer    Maximum-Flux-Residual          L2-NORM 
          0                 1           2             2    2     1       0.8165367554E-02       2    2    1         0.4253682283E+00      0.1694724188E+01
          0                 2           2             8    2     1       0.2336131609E-02       2    2    1         0.7397799398E-01      0.4572531756E+00
          0                 3           2             8    2     1       0.1050016928E-02       8    2    1         0.2726840564E-01      0.1764408438E+00
          0                 4           2             8    2     1       0.4719482562E-03       8    2    1         0.1225627753E-01      0.7691952195E-01
          0                 5           2             8    2     1       0.2121248541E-03       8    2    1         0.5508793723E-02      0.3429420229E-01
          0                 6           1             8    2     1       0.9534277992E-04       8    2    1         0.2476016406E-02      0.1534390557E-01
          0                 7           1             8    2     1       0.4285318879E-04       8    2    1         0.1112883251E-02      0.6869113193E-02
          0                 8           1             8    2     1       0.1926094340E-04       8    2    1         0.5002012503E-03      0.3075538493E-02
          0                 9           1             8    2     1       0.8657072033E-05       8    2    1         0.2248221047E-03      0.1377106694E-02

    ------------------------------------------------
       NWT REQUIRED            9 OUTER ITERATIONS 
       AND A TOTAL OF         14 INNER ITERATIONS.
    ------------------------------------------------

 NO OUTPUT CONTROL FOR STRESS PERIOD    4   TIME STEP   21
 
 SOLVING FOR HEAD 
                                                   Max.-Head-Change                         Max.-Flux-Residual
  Residual-Control   Outer-Iter.   Inner-Iter.     Column Row Layer    Maximum-Head-Change  Column Row Layer    Maximum-Flux-Residual          L2-NORM 
          0                 1           2             2    2     1       0.8136231062E-02       2    2    1         0.4238345547E+00      0.1691041017E+01
          0                 2           2             8    2     1       0.2335538854E-02       2    2    1         0.7371560274E-01      0.4564179014E+00
          0                 3           2             8    2     1       0.1049748478E-02       8    2    1         0.2726147718E-01      0.1761336046E+00
          0                 4           2             8    2     1       0.4718266858E-03       8    2    1         0.1225313975E-01      0.7678719064E-01
          0                 5           2             8    2     1       0.2120698029E-03       8    2    1         0.5507372764E-02      0.3423543201E-01
          0                 6           1             8    2     1       0.9531785210E-04       8    2    1         0.2475372948E-02      0.1531767039E-01
          0                 7           1             8    2     1       0.4284190153E-04       8    2    1         0.1112591885E-02      0.6857391780E-02
          0                 8           1             8    2     1       0.1925583288E-04       8    2    1         0.5000693226E-03      0.3070300340E-02
          0                 9           1             8    2     1       0.8654758006E-05       8    2    1         0.2247623723E-03      0.1374766007E-02

    ------------------------------------------------
       NWT REQUIRED            9 OUTER ITERATIONS 
       AND A TOTAL OF         14 INNER ITERATIONS.
    ------------------------------------------------

 NO OUTPUT CONTROL FOR STRESS PERIOD    4   TIME STEP   22
 
 SOLVING FOR HEAD 
                                                   Max.-Head-Change                         Max.-Flux-Residual
  Residual-Control   Outer-Iter.   Inner-Iter.     Column Row Layer    Maximum-Head-Change  Column Row Layer    Maximum-Flux-Residual          L2-NORM 
          0                 1           2             2    2     1       0.8107650532E-02       2    2    1         0.4223301795E+00      0.1687630648E+01
          0                 2           2             8    2     1       0.2334940319E-02       2    2    1         0.7345821489E-01      0.4556762811E+00
          0                 3           2             8    2     1       0.1049477431E-02       8    2    1         0.2725448123E-01      0.1758366996E+00
          0                 4           2             8    2     1       0.4717039483E-03       8    2    1         0.1224997166E-01      0.7665602558E-01
          0                 5           2             8    2     1       0.2120142270E-03       8    2    1         0.5505938178E-02      0.3417688187E-01
          0                 6           1             8    2     1       0.9529268843E-04       8    2    1         0.2474723370E-02      0.1529150763E-01
          0                 7           1             8    2     1       0.4283050872E-04       8    2    1         0.1112297773E-02      0.6845700429E-02
          0                 8           1             8    2     1       0.1925067484E-04       8    2    1         0.4999361636E-03      0.3065075873E-02
          0                 9           1             8    2     1       0.8652423219E-05       8    2    1         0.2247020911E-03      0.1372431325E-02

    ------------------------------------------------
       NWT REQUIRED            9 OUTER ITERATIONS 
       AND A TOTAL OF         14 INNER ITERATIONS.
    ------------------------------------------------

 NO OUTPUT CONTROL FOR STRESS PERIOD    4   TIME STEP   23
 
 SOLVING FOR HEAD 
                                                   Max.-Head-Change                         Max.-Flux-Residual
  Residual-Control   Outer-Iter.   Inner-Iter.     Column Row Layer    Maximum-Head-Change  Column Row Layer    Maximum-Flux-Residual          L2-NORM 
          0                 1           2             2    2     1       0.8079614090E-02       2    2    1         0.4208544955E+00      0.1685362575E+01
          0                 2           2             8    2     1       0.2334386052E-02       2    2    1         0.7320572165E-01      0.4550262047E+00
          0                 3           2             8    2     1       0.1049226224E-02       8    2    1         0.2724800173E-01      0.1755472991E+00
          0                 4           2             8    2     1       0.4715901035E-03       8    2    1         0.1224703504E-01      0.7652598261E-01
          0                 5           2             8    2     1       0.2119626368E-03       8    2    1         0.5504607343E-02      0.3411869690E-01
          0                 6           1             8    2     1       0.9526931130E-04       8    2    1         0.2474120294E-02      0.1526550062E-01
          0                 7           1             8    2     1       0.4281991652E-04       8    2    1         0.1112024506E-02      0.6834077796E-02
          0                 8           1             8    2     1       0.1924587571E-04       8    2    1         0.4998123489E-03      0.3059882016E-02
          0                 9           1             8    2     1       0.8650249254E-05       8    2    1         0.2246459950E-03      0.1370110133E-02

    ------------------------------------------------
       NWT REQUIRED            9 OUTER ITERATIONS 
       AND A TOTAL OF         14 INNER ITERATIONS.
    ------------------------------------------------

 NO OUTPUT CONTROL FOR STRESS PERIOD    4   TIME STEP   24
 
 SOLVING FOR HEAD 
                                                   Max.-Head-Change                         Max.-Flux-Residual
  Residual-Control   Outer-Iter.   Inner-Iter.     Column Row Layer    Maximum-Head-Change  Column Row Layer    Maximum-Flux-Residual          L2-NORM 
          0                 1           2             2    2     1       0.8052021370E-02       2    2    1         0.4194022467E+00      0.1683032639E+01
          0                 2           2             8    2     1       0.2333775571E-02       2    2    1         0.7295721653E-01      0.4543646224E+00
          0                 3           2             8    2     1       0.1048949782E-02       8    2    1         0.2724086623E-01      0.1752584970E+00
          0                 4           2             8    2     1       0.4714649302E-03       8    2    1         0.1224380393E-01      0.7639632915E-01
          0                 5           2             8    2     1       0.2119059614E-03       8    2    1         0.5503144303E-02      0.3406068927E-01
          0                 6           1             8    2     1       0.9524365116E-04       8    2    1         0.2473457867E-02      0.1523957433E-01
          0                 7           1             8    2     1       0.4280829936E-04       8    2    1         0.1111724593E-02      0.6822494601E-02
          0                 8           1             8    2     1       0.1924061712E-04       8    2    1         0.4996765702E-03      0.3054708640E-02
          0                 9           1             8    2     1       0.8647868447E-05       8    2    1         0.2245845227E-03      0.1367796314E-02

    ------------------------------------------------
       NWT REQUIRED            9 OUTER ITERATIONS 
       AND A TOTAL OF         14 INNER ITERATIONS.
    ------------------------------------------------

 NO OUTPUT CONTROL FOR STRESS PERIOD    4   TIME STEP   25
 
 SOLVING FOR HEAD 
                                                   Max.-Head-Change                         Max.-Flux-Residual
  Residual-Control   Outer-Iter.   Inner-Iter.     Column Row Layer    Maximum-Head-Change  Column Row Layer    Maximum-Flux-Residual          L2-NORM 
          0                 1           2             2    2     1       0.8024950813E-02       2    2    1         0.4179774904E+00      0.1680770284E+01
          0                 2           2             8    2     1       0.2333159166E-02       2    2    1         0.7271341304E-01      0.4537212434E+00
          0                 3           2             8    2     1       0.1048670659E-02       8    2    1         0.2723366149E-01      0.1749705184E+00
          0                 4           2             8    2     1       0.4713385438E-03       8    2    1         0.1224054149E-01      0.7626682759E-01
          0                 5           2             8    2     1       0.2118487370E-03       8    2    1         0.5501667093E-02      0.3400274700E-01
          0                 6           1             8    2     1       0.9521774315E-04       8    2    1         0.2472789037E-02      0.1521367817E-01
          0                 7           1             8    2     1       0.4279657040E-04       8    2    1         0.1111421789E-02      0.6810923038E-02
          0                 8           1             8    2     1       0.1923530702E-04       8    2    1         0.4995394878E-03      0.3049531698E-02
          0                 9           1             8    2     1       0.8645465130E-05       8    2    1         0.2245224747E-03      0.1365484927E-02

    ------------------------------------------------
       NWT REQUIRED            9 OUTER ITERATIONS 
       AND A TOTAL OF         14 INNER ITERATIONS.
    ------------------------------------------------

 NO OUTPUT CONTROL FOR STRESS PERIOD    4   TIME STEP   26
 
 SOLVING FOR HEAD 
                                                   Max.-Head-Change                         Max.-Flux-Residual
  Residual-Control   Outer-Iter.   Inner-Iter.     Column Row Layer    Maximum-Head-Change  Column Row Layer    Maximum-Flux-Residual          L2-NORM 
          0                 1           2             2    2     1       0.7998302687E-02       2    2    1         0.4165750659E+00      0.1678771533E+01
          0                 2           2             8    2     1       0.2332537096E-02       2    2    1         0.7247340419E-01      0.4530890287E+00
          0                 3           2             8    2     1       0.1048389049E-02       8    2    1         0.2722639090E-01      0.1746850631E+00
          0                 4           2             8    2     1       0.4712110657E-03       8    2    1         0.1223725013E-01      0.7613835465E-01
          0                 5           2             8    2     1       0.2117910337E-03       8    2    1         0.5500177185E-02      0.3394525317E-01
          0                 6           1             8    2     1       0.9519162506E-04       8    2    1         0.2472114633E-02      0.1518797498E-01
          0                 7           1             8    2     1       0.4278474916E-04       8    2    1         0.1111116537E-02      0.6799432195E-02
          0                 8           1             8    2     1       0.1922995739E-04       8    2    1         0.4994013296E-03      0.3044399349E-02
          0                 9           1             8    2     1       0.8643043555E-05       8    2    1         0.2244599401E-03      0.1363192497E-02

    ------------------------------------------------
       NWT REQUIRED            9 OUTER ITERATIONS 
       AND A TOTAL OF         14 INNER ITERATIONS.
    ------------------------------------------------

 NO OUTPUT CONTROL FOR STRESS PERIOD    4   TIME STEP   27
 
 SOLVING FOR HEAD 
                                                   Max.-Head-Change                         Max.-Flux-Residual
  Residual-Control   Outer-Iter.   Inner-Iter.     Column Row Layer    Maximum-Head-Change  Column Row Layer    Maximum-Flux-Residual          L2-NORM 
          0                 1           2             2    2     1       0.7972243341E-02       2    2    1         0.4152036306E+00      0.1676813693E+01
          0                 2           2             8    2     1       0.2331959196E-02       2    2    1         0.7223869792E-01      0.4524595495E+00
          0                 3           2             8    2     1       0.1048127182E-02       8    2    1         0.2721963536E-01      0.1744007909E+00
          0                 4           2             8    2     1       0.4710924128E-03       8    2    1         0.1223418899E-01      0.7601043536E-01
          0                 5           2             8    2     1       0.2117372755E-03       8    2    1         0.5498790198E-02      0.3388801210E-01
          0                 6           1             8    2     1       0.9516727074E-04       8    2    1         0.2471486240E-02      0.1516239198E-01
          0                 7           1             8    2     1       0.4277371626E-04       8    2    1         0.1110831850E-02      0.6788000412E-02
          0                 8           1             8    2     1       0.1922495942E-04       8    2    1         0.4992723653E-03      0.3039291186E-02
          0                 9           1             8    2     1       0.8640780050E-05       8    2    1         0.2244015270E-03      0.1360908958E-02

    ------------------------------------------------
       NWT REQUIRED            9 OUTER ITERATIONS 
       AND A TOTAL OF         14 INNER ITERATIONS.
    ------------------------------------------------

 NO OUTPUT CONTROL FOR STRESS PERIOD    4   TIME STEP   28
 
 SOLVING FOR HEAD 
                                                   Max.-Head-Change                         Max.-Flux-Residual
  Residual-Control   Outer-Iter.   Inner-Iter.     Column Row Layer    Maximum-Head-Change  Column Row Layer    Maximum-Flux-Residual          L2-NORM 
          0                 1           2             2    2     1       0.8056538488E-02       2    2    1         0.4196066740E+00      0.1684374076E+01
          0                 2           2             8    2     1       0.2331324972E-02       2    2    1         0.7300123205E-01      0.4526210682E+00
          0                 3           2             8    2     1       0.1047840033E-02       8    2    1         0.2721222255E-01      0.1741828627E+00
          0                 4           2             8    2     1       0.4709624123E-03       8    2    1         0.1223083284E-01      0.7589066553E-01
          0                 5           2             8    2     1       0.2116784244E-03       8    2    1         0.5497270787E-02      0.3383294943E-01
          0                 6           1             8    2     1       0.9514062992E-04       8    2    1         0.2470798400E-02      0.1513767697E-01
          0                 7           1             8    2     1       0.4276165765E-04       8    2    1         0.1110520485E-02      0.6776944654E-02
          0                 8           1             8    2     1       0.1921950125E-04       8    2    1         0.4991314243E-03      0.3034348268E-02
          0                 9           1             8    2     1       0.8638309453E-05       8    2    1         0.2243377348E-03      0.1358699942E-02

    ------------------------------------------------
       NWT REQUIRED            9 OUTER ITERATIONS 
       AND A TOTAL OF         14 INNER ITERATIONS.
    ------------------------------------------------

 NO OUTPUT CONTROL FOR STRESS PERIOD    4   TIME STEP   29
 
 SOLVING FOR HEAD 
                                                   Max.-Head-Change                         Max.-Flux-Residual
  Residual-Control   Outer-Iter.   Inner-Iter.     Column Row Layer    Maximum-Head-Change  Column Row Layer    Maximum-Flux-Residual          L2-NORM 
          0                 1           2             4   13     1       0.1399592399E-01       4   13    1         0.8044898135E+00      0.2352470343E+01
          0                 2           2             8    2     1       0.2330684967E-02       2    2    1         0.1030519525E+00      0.4883460983E+00
          0                 3           2             8    2     1       0.1047550324E-02       8    2    1         0.2720474243E-01      0.1764699580E+00
          0                 4           2             8    2     1       0.4708312776E-03       8    2    1         0.1222744687E-01      0.7603664202E-01
          0                 5           2             8    2     1       0.2116190698E-03       8    2    1         0.5495738161E-02      0.3384348877E-01
          0                 6           1             8    2     1       0.9511376674E-04       8    2    1         0.2470104718E-02      0.1513868385E-01
          0                 7           1             8    2     1       0.4274950001E-04       8    2    1         0.1110206532E-02      0.6777055535E-02
          0                 8           1             8    2     1       0.1921399981E-04       8    2    1         0.4989893443E-03      0.3034332034E-02
          0                 9           1             8    2     1       0.8635820098E-05       8    2    1         0.2242734335E-03      0.1358696386E-02

    ------------------------------------------------
       NWT REQUIRED            9 OUTER ITERATIONS 
       AND A TOTAL OF         14 INNER ITERATIONS.
    ------------------------------------------------

 NO OUTPUT CONTROL FOR STRESS PERIOD    4   TIME STEP   30



 STREAM LISTING     PERIOD      4   STEP       30

 LAYER ROW COL. STREAM  RCH.  FLOW INTO     FLOW TO   FLOW OUT OF   OVRLND.     DIRECT     STREAM       STREAM     STREAM     STREAM   STREAMBED  STREAMBED
                SEG.NO.  NO.  STRM. RCH.    AQUIFER    STRM. RCH.    RUNOFF     PRECIP       ET          HEAD       DEPTH      WIDTH   CONDCTNC.   GRADIENT

   1    1    1     1     1    7.7000E+01  4.2703E-01   7.6573E+01  0.000E+00  0.000E+00  0.000E+00  1.09476E+03  1.708E+00  2.016E+01  9.070E-02  1.569E+00
   1    2    2     1     2    7.6573E+01  6.6237E-01   7.5911E+01  0.000E+00  0.000E+00  0.000E+00  1.08976E+03  1.706E+00  2.011E+01  1.408E-01  1.569E+00
   1    3    3     1     3    7.5911E+01  5.6590E-01   7.5345E+01  0.000E+00  0.000E+00  0.000E+00  1.08412E+03  1.703E+00  2.006E+01  1.203E-01  1.568E+00
   1    3    4     1     4    7.5345E+01  5.2193E-01   7.4823E+01  0.000E+00  0.000E+00  0.000E+00  1.07911E+03  1.700E+00  2.001E+01  1.110E-01  1.567E+00
   1    4    5     2     1    7.2823E+01  4.1259E-01   7.2410E+01  0.000E+00  0.000E+00  0.000E+00  1.07422E+03  2.290E+00  1.200E+01  7.800E-02  1.763E+00
   1    5    6     2     2    7.2410E+01  3.1696E-01   7.2093E+01  0.000E+00  0.000E+00  0.000E+00  1.06879E+03  2.283E+00  1.200E+01  6.000E-02  1.761E+00
   1    6    6     2     3    7.2093E+01  3.1660E-01   7.1777E+01  0.000E+00  0.000E+00  0.000E+00  1.06407E+03  2.277E+00  1.200E+01  6.000E-02  1.759E+00
   1    7    6     2     4    7.1777E+01  3.1624E-01   7.1460E+01  0.000E+00  0.000E+00  0.000E+00  1.05935E+03  2.271E+00  1.200E+01  6.000E-02  1.757E+00
   1    8    6     2     5    7.1460E+01  3.1588E-01   7.1144E+01  0.000E+00  0.000E+00  0.000E+00  1.05462E+03  2.265E+00  1.200E+01  6.000E-02  1.755E+00
   1    3    5     3     1    2.0000E+00  2.8252E-01   1.7175E+00  0.000E+00  0.000E+00  0.000E+00  1.07555E+03  1.909E+00  9.636E+00  7.227E-02  1.955E+00
   1    3    6     3     2    1.7175E+00  2.4905E-01   1.4684E+00  0.000E+00  0.000E+00  0.000E+00  1.07264E+03  1.727E+00  8.909E+00  6.682E-02  1.864E+00
   1    3    7     3     3    1.4684E+00  1.9718E-01   1.2712E+00  0.000E+00  0.000E+00  0.000E+00  1.06987E+03  1.555E+00  8.218E+00  5.547E-02  1.777E+00
   1    4    8     3     4    1.2712E+00  2.2567E-01   1.0456E+00  0.000E+00  0.000E+00  0.000E+00  1.06682E+03  1.364E+00  7.455E+00  6.709E-02  1.682E+00
   1    5    8     3     5    1.0456E+00  1.5790E-01   8.8768E-01  0.000E+00  0.000E+00  0.000E+00  1.06362E+03  1.164E+00  6.655E+00  4.991E-02  1.582E+00
   1    6    8     3     6    8.8768E-01  5.5980E-02   8.3170E-01  0.000E+00  0.000E+00  0.000E+00  1.06158E+03  1.036E+00  6.145E+00  1.844E-02  1.518E+00
   1    5   10     4     1    1.0000E+01  9.0919E-02   9.9091E+00  0.000E+00  0.000E+00  0.000E+00  1.07836E+03  6.368E-01  1.000E+01  2.500E-02  1.212E+00
   1    5    9     4     2    9.9091E+00  1.8158E-01   9.7275E+00  0.000E+00  0.000E+00  0.000E+00  1.07154E+03  6.315E-01  1.000E+01  5.000E-02  1.211E+00
   1    6    8     4     3    9.7275E+00  1.2689E-01   9.6006E+00  0.000E+00  0.000E+00  0.000E+00  1.06381E+03  6.256E-01  1.000E+01  3.500E-02  1.209E+00
   1    6    8     5     1    1.0432E+01  2.2686E-01   1.0205E+01  0.000E+00  0.000E+00  0.000E+00  1.05868E+03  6.790E-01  1.542E+01  6.166E-02  1.226E+00
   1    7    7     5     2    1.0205E+01  2.7894E-01   9.9265E+00  0.000E+00  0.000E+00  0.000E+00  1.05417E+03  6.732E-01  1.519E+01  7.594E-02  1.224E+00
   1    8    7     5     3    9.9265E+00  1.9221E-01   9.7343E+00  0.000E+00  0.000E+00  0.000E+00  1.04992E+03  6.676E-01  1.497E+01  5.241E-02  1.223E+00
   1    8    6     5     4    9.7343E+00  1.3577E-01   9.5985E+00  0.000E+00  0.000E+00  0.000E+00  1.04691E+03  6.637E-01  1.482E+01  3.706E-02  1.221E+00
   1    9    6     6     1    8.0743E+01  3.2786E-01   8.0415E+01  0.000E+00  0.000E+00  0.000E+00  1.04519E+03  2.464E+00  1.200E+01  6.000E-02  1.821E+00
   1   10    7     6     2    8.0415E+01  3.2750E-01   8.0088E+01  0.000E+00  0.000E+00  0.000E+00  1.04064E+03  2.458E+00  1.200E+01  6.000E-02  1.819E+00
   1   11    7     6     3    8.0088E+01  3.2714E-01   7.9761E+01  0.000E+00  0.000E+00  0.000E+00  1.03609E+03  2.452E+00  1.200E+01  6.000E-02  1.817E+00
   1   12    7     6     4    7.9761E+01  3.2678E-01   7.9434E+01  0.000E+00  0.000E+00  0.000E+00  1.03154E+03  2.446E+00  1.200E+01  6.000E-02  1.815E+00
   1   13    7     6     5    7.9434E+01  2.1349E-02   7.9412E+01  0.000E+00  0.000E+00  0.000E+00  1.02835E+03  2.443E+00  1.200E+01  2.400E-02  2.965E-01
   1   14    9     7     1    1.5000E+02  1.1996E+00   1.4880E+02  0.000E+00  0.000E+00  0.000E+00  1.03987E+03  2.288E+00  5.530E+01  5.593E-01  7.149E-01
   1   13    8     7     2    1.4880E+02  1.6431E+00   1.4716E+02  0.000E+00  0.000E+00  0.000E+00  1.03478E+03  2.281E+00  5.526E+01  6.148E-01  8.908E-01
   1   13    7     7     3    1.4716E+02  1.2453E+00   1.4591E+02  0.000E+00  0.000E+00  0.000E+00  1.02969E+03  2.273E+00  5.523E+01  5.586E-01  7.432E-01
   1   13    6     8     1    2.2532E+02  9.5022E-01   2.2437E+02  0.000E+00  0.000E+00  0.000E+00  1.02515E+03  3.279E+00  4.754E+01  4.844E-01  6.538E-01
   1   13    5     8     2    2.2437E+02  1.4928E-01   2.2422E+02  0.000E+00  0.000E+00  0.000E+00  1.01890E+03  3.276E+00  4.750E+01  4.840E-01  1.028E-01
   1   13    4     8     3    2.2422E+02 -2.2683E+00   2.2649E+02  0.000E+00  0.000E+00  0.000E+00  1.01266E+03  3.281E+00  4.758E+01  4.849E+00 -1.559E-01
   1   13    3     8     4    2.2649E+02 -3.3473E+00   2.2984E+02  0.000E+00  0.000E+00  0.000E+00  1.00642E+03  3.297E+00  4.780E+01  4.871E+00 -2.291E-01
   1   13    2     8     5    2.2984E+02 -2.0710E+00   2.3191E+02  0.000E+00  0.000E+00  0.000E+00  1.00019E+03  3.311E+00  4.801E+01  4.893E+00 -1.411E-01
   1   13    1     8     6    2.3191E+02 -1.6126E+00   2.3352E+02  0.000E+00  0.000E+00  0.000E+00  9.95196E+02  3.321E+00  4.816E+01  2.944E+00 -1.826E-01
   1    6    8     9     1    0.0000E+00  0.0000E+00   0.0000E+00  0.000E+00  0.000E+00  0.000E+00  1.07850E+03  0.000E+00  4.000E+00  0.000E+00  1.000E+00





UNSATURATED ZONE PACKAGE VOLUMETRIC BUDGET FOR  TIME STEP    30 STRESS PERIOD    4
  ------------------------------------------------------------------------------



     CUMULATIVE VOLUMES      L**3       RATES FOR THIS TIME STEP      L**3/T
     ------------------                 ------------------------

           IN:                                      IN:
           ---                                      ---
        INFILTRATION =      183082.4255          INFILTRATION =       0.0000E+00

          OUT:                                     OUT:
          ----                                     ----
              UZF ET =     2286353.9232                UZF ET =           0.2900
        UZF RECHARGE =   213049025.2056          UZF RECHARGE =          27.0235

            IN - OUT =  -215152296.7033              IN - OUT =         -27.3135

          STORAGE:                                 STORAGE:
          --------                                 --------
      STORAGE CHANGE =  -215147510.0729        STORAGE CHANGE =         -27.3131

 PERCENT DISCREPANCY IS DIFFERENCE BETWEEN IN-OUT MINUS CHANGE IN STORAGE
 DIVIDED BY THE AVERAGE OF IN AND OUT TIMES 100

 PERCENT DISCREPANCY =          -0.00     PERCENT DISCREPANCY =          -0.00






1
  VOLUMETRIC BUDGET FOR ENTIRE MODEL AT END OF TIME STEP   30, STRESS PERIOD   4
  ------------------------------------------------------------------------------

     CUMULATIVE VOLUMES      L**3       RATES FOR THIS TIME STEP      L**3/T
     ------------------                 ------------------------

           IN:                                      IN:
           ---                                      ---
             STORAGE     =     1005878.5625               STORAGE     =           0.0000
       CONSTANT HEAD     =           0.0000         CONSTANT HEAD     =           0.0000
               WELLS     =           0.0000                 WELLS     =           0.0000
     HEAD DEP BOUNDS     =     2235694.5000       HEAD DEP BOUNDS     =           0.2765
      STREAM LEAKAGE     =    87717032.0000        STREAM LEAKAGE     =          12.7752
        UZF RECHARGE     =   213049008.0000          UZF RECHARGE     =          27.0235
               GW ET     =           0.0000                 GW ET     =           0.0000
     SURFACE LEAKAGE     =           0.0000       SURFACE LEAKAGE     =           0.0000
    SUPPLEMENTARY WELLS  =           0.0000      SUPPLEMENTARY WELLS  =           0.0000

                TOTAL IN =   304007616.0000                  TOTAL IN =          40.0751

          OUT:                                     OUT:
          ----                                     ----
             STORAGE     =   211877968.0000               STORAGE     =          30.4772
       CONSTANT HEAD     =           0.0000         CONSTANT HEAD     =           0.0000
               WELLS     =           0.0000                 WELLS     =           0.0000
     HEAD DEP BOUNDS     =     2309705.7500       HEAD DEP BOUNDS     =           0.2943
      STREAM LEAKAGE     =    89597632.0000        STREAM LEAKAGE     =           9.2991
        UZF RECHARGE     =           0.0000          UZF RECHARGE     =           0.0000
               GW ET     =      151085.3438                 GW ET     =       3.0356E-10
     SURFACE LEAKAGE     =           0.0000       SURFACE LEAKAGE     =           0.0000
    SUPPLEMENTARY WELLS  =       31277.0352      SUPPLEMENTARY WELLS  =           0.0000

               TOTAL OUT =   303967648.0000                 TOTAL OUT =          40.0706

                IN - OUT =       39968.0000                  IN - OUT =       4.5853E-03

     PERCENT DISCREPANCY =           0.01         PERCENT DISCREPANCY =           0.01






         TIME SUMMARY AT END OF TIME STEP   30 IN STRESS PERIOD    4
                    SECONDS     MINUTES      HOURS       DAYS        YEARS
                    -----------------------------------------------------------
   TIME STEP LENGTH  87600.      1460.0      24.333      1.0139     2.77588E-03
 STRESS PERIOD TIME 2.62800E+06  43800.      730.00      30.417     8.32763E-02
         TOTAL TIME 7.97040E+06 1.32840E+05  2214.0      92.250     0.25257    
1
1
                            STRESS PERIOD NO.    5, LENGTH =   2628000.    
                            -----------------------------------------------

                              NUMBER OF TIME STEPS =    30

                               MULTIPLIER FOR DELT =     1.000

                            INITIAL TIME STEP SIZE =   87600.00    

 WELL NO.  LAYER   ROW   COL   STRESS RATE         
 --------------------------------------------------
      1      1      6      4       0.000    
      2      1      6      7       0.000    
      3      1      7      4       0.000    
      4      1      7      5       0.000    
      5      1      8      4       0.000    
      6      1      8      5       0.000    
      7      1      9      4       0.000    
      8      1      9      5       0.000    
      9      1     10      4       0.000    
     10      1     10      5       0.000    

     10 WELLS

 REUSING NON-PARAMETER GHB CELLS FROM LAST STRESS PERIOD

      2 GHB CELLS

 REUSING STREAM SEGMENT DATA FROM LAST STRESS PERIOD



            AREAL INFILTRATION RATE
 READING ON UNIT   19 WITH FORMAT: (10F4.0)            

            1           2           3           4           5           6           7           8           9          10
 ........................................................................................................................
   1    0.000       0.000       0.000       0.000       0.000       0.000       0.000       0.000       0.000       0.000    
   2    0.000       0.000       0.000       0.000       0.000       0.000       0.000       0.000       0.000       0.000    
   3    0.000       0.000       0.000       0.000       0.000       0.000       0.000       0.000       0.000       0.000    
   4    0.000       0.000       0.000       0.000       0.000       0.000       0.000       0.000       0.000       0.000    
   5    0.000       0.000       0.000       0.000       0.000       0.000       0.000       0.000       0.000       0.000    
   6    0.000       0.000       0.000       0.000       0.000       0.000       0.000       0.000       0.000       0.000    
   7    0.000       0.000       0.000       0.000       0.000       0.000       0.000       0.000       0.000       0.000    
   8    0.000       0.000       0.000       0.000       0.000       0.000       0.000       0.000       0.000       0.000    
   9    0.000       0.000       0.000       0.000       0.000       0.000       0.000       0.000       0.000       0.000    
  10    0.000       0.000       0.000       0.000       0.000       0.000       0.000       0.000       0.000       0.000    
  11    0.000       0.000       0.000       0.000       0.000       0.000       0.000       0.000       0.000       0.000    
  12    0.000       0.000       0.000       0.000       0.000       0.000       0.000       0.000       0.000       0.000    
  13    0.000       0.000       0.000       0.000       0.000       0.000       0.000       0.000       0.000       0.000    
  14    0.000       0.000       0.000       0.000       0.000       0.000       0.000       0.000       0.000       0.000    
  15    0.000       0.000       0.000       0.000       0.000       0.000       0.000       0.000       0.000       0.000    

                  ET RATE =  5.000000E-09

 USING ET EXTINCTION DEPTH FROM PREVIOUS STRESS PERIOD. CURRENT PERIOD IS:       5

 USING EXTINCTION WATER CONTENT FROM PREVIOUS STRESS PERIOD. CURRENT PERIOD IS:       5

 PROCESSING AGO STRESS PERIOD DATA

 READING AGO STRESS PERIOD DATA

 READING IRRIGATION STREAM

 READING IRRIGATION WELL

 READING SUPPLEMENTAL WEL

 END PROCESSING AGO STRESS PERIOD DATA OPTIONS
 
 SOLVING FOR HEAD 
                                                   Max.-Head-Change                         Max.-Flux-Residual
  Residual-Control   Outer-Iter.   Inner-Iter.     Column Row Layer    Maximum-Head-Change  Column Row Layer    Maximum-Flux-Residual          L2-NORM 
          0                 1           2             4   13     1       0.1252144860E-01       4   13    1         0.7188876725E+00      0.2276672904E+01
          0                 2           2             8    2     1       0.2330039291E-02       2    2    1         0.1025146366E+00      0.4859570906E+00
          0                 3           2             8    2     1       0.1047258095E-02       8    2    1         0.2719719626E-01      0.1763093737E+00
          0                 4           2             8    2     1       0.4706990229E-03       8    2    1         0.1222403154E-01      0.7599813170E-01
          0                 5           2             8    2     1       0.2115592187E-03       8    2    1         0.5494192503E-02      0.3382708768E-01
          0                 6           1             8    2     1       0.9508668246E-04       8    2    1         0.2469405241E-02      0.1513122415E-01
          0                 7           1             8    2     1       0.4273724457E-04       8    2    1         0.1109890008E-02      0.6773648018E-02
          0                 8           1             8    2     1       0.1920845434E-04       8    2    1         0.4988461180E-03      0.3032776858E-02
          0                 9           1             8    2     1       0.8633310984E-05       8    2    1         0.2242086290E-03      0.1357960197E-02

    ------------------------------------------------
       NWT REQUIRED            9 OUTER ITERATIONS 
       AND A TOTAL OF         14 INNER ITERATIONS.
    ------------------------------------------------

 NO OUTPUT CONTROL FOR STRESS PERIOD    5   TIME STEP    1
 
 SOLVING FOR HEAD 
                                                   Max.-Head-Change                         Max.-Flux-Residual
  Residual-Control   Outer-Iter.   Inner-Iter.     Column Row Layer    Maximum-Head-Change  Column Row Layer    Maximum-Flux-Residual          L2-NORM 
          0                 1           2             2    2     1       0.1126354119E-01       4   13    1         0.6419164698E+00      0.2208610339E+01
          0                 2           2             8    2     1       0.2329387655E-02       2    2    1         0.1019870883E+00      0.4825765760E+00
          0                 3           2             8    2     1       0.1046963116E-02       8    2    1         0.2718958018E-01      0.1760743478E+00
          0                 4           2             8    2     1       0.4705655018E-03       8    2    1         0.1222058398E-01      0.7594821241E-01
          0                 5           2             8    2     1       0.2114987842E-03       8    2    1         0.5492631988E-02      0.3380696529E-01
          0                 6           1             8    2     1       0.9505933032E-04       8    2    1         0.2468698928E-02      0.1512218818E-01
          0                 7           1             8    2     1       0.4272486582E-04       8    2    1         0.1109570337E-02      0.6769543160E-02
          0                 8           1             8    2     1       0.1920285211E-04       8    2    1         0.4987014451E-03      0.3030911919E-02
          0                 9           1             8    2     1       0.8630776108E-05       8    2    1         0.2241431628E-03      0.1357113715E-02

    ------------------------------------------------
       NWT REQUIRED            9 OUTER ITERATIONS 
       AND A TOTAL OF         14 INNER ITERATIONS.
    ------------------------------------------------

 NO OUTPUT CONTROL FOR STRESS PERIOD    5   TIME STEP    2
 
 SOLVING FOR HEAD 
                                                   Max.-Head-Change                         Max.-Flux-Residual
  Residual-Control   Outer-Iter.   Inner-Iter.     Column Row Layer    Maximum-Head-Change  Column Row Layer    Maximum-Flux-Residual          L2-NORM 
          0                 1           2             2    2     1       0.1120610532E-01       2    2    1         0.5843429446E+00      0.2152137552E+01
          0                 2           2             8    2     1       0.2328730353E-02       2    2    1         0.1014698913E+00      0.4801467908E+00
          0                 3           2             8    2     1       0.1046665653E-02       8    2    1         0.2718189826E-01      0.1758767641E+00
          0                 4           2             8    2     1       0.4704308916E-03       8    2    1         0.1221710755E-01      0.7589614371E-01
          0                 5           2             8    2     1       0.2114378729E-03       8    2    1         0.5491058827E-02      0.3378496670E-01
          0                 6           1             8    2     1       0.9503176933E-04       8    2    1         0.2467987076E-02      0.1511227553E-01
          0                 7           1             8    2     1       0.4271239553E-04       8    2    1         0.1109248239E-02      0.6765048734E-02
          0                 8           1             8    2     1       0.1919721035E-04       8    2    1         0.4985557138E-03      0.3028874093E-02
          0                 9           1             8    2     1       0.8628223725E-05       8    2    1         0.2240772302E-03      0.1356290762E-02

    ------------------------------------------------
       NWT REQUIRED            9 OUTER ITERATIONS 
       AND A TOTAL OF         14 INNER ITERATIONS.
    ------------------------------------------------

 NO OUTPUT CONTROL FOR STRESS PERIOD    5   TIME STEP    3
 
 SOLVING FOR HEAD 
                                                   Max.-Head-Change                         Max.-Flux-Residual
  Residual-Control   Outer-Iter.   Inner-Iter.     Column Row Layer    Maximum-Head-Change  Column Row Layer    Maximum-Flux-Residual          L2-NORM 
          0                 1           2             2    2     1       0.1114970545E-01       2    2    1         0.5813739130E+00      0.2105229109E+01
          0                 2           2             8    2     1       0.2328067268E-02       2    2    1         0.1009620067E+00      0.4782925150E+00
          0                 3           2             8    2     1       0.1046365565E-02       8    2    1         0.2717414872E-01      0.1756927100E+00
          0                 4           2             8    2     1       0.4702950908E-03       8    2    1         0.1221360043E-01      0.7584026713E-01
          0                 5           2             8    2     1       0.2113764216E-03       8    2    1         0.5489471743E-02      0.3376074863E-01
          0                 6           1             8    2     1       0.9500396324E-04       8    2    1         0.2467268908E-02      0.1510134805E-01
          0                 7           1             8    2     1       0.4269981445E-04       8    2    1         0.1108923284E-02      0.6760101012E-02
          0                 8           1             8    2     1       0.1919151833E-04       8    2    1         0.4984086850E-03      0.3026634957E-02
          0                 9           1             8    2     1       0.8625648582E-05       8    2    1         0.2240107082E-03      0.1355177044E-02

    ------------------------------------------------
       NWT REQUIRED            9 OUTER ITERATIONS 
       AND A TOTAL OF         14 INNER ITERATIONS.
    ------------------------------------------------

 NO OUTPUT CONTROL FOR STRESS PERIOD    5   TIME STEP    4
 
 SOLVING FOR HEAD 
                                                   Max.-Head-Change                         Max.-Flux-Residual
  Residual-Control   Outer-Iter.   Inner-Iter.     Column Row Layer    Maximum-Head-Change  Column Row Layer    Maximum-Flux-Residual          L2-NORM 
          0                 1           2             2    2     1       0.1109431773E-01       2    2    1         0.5784582619E+00      0.2066983568E+01
          0                 2           2             8    2     1       0.2327398583E-02       2    2    1         0.1004632267E+00      0.4768934111E+00
          0                 3           2             8    2     1       0.1046063002E-02       8    2    1         0.2716633402E-01      0.1755190057E+00
          0                 4           2             8    2     1       0.4701581958E-03       8    2    1         0.1221006450E-01      0.7578136983E-01
          0                 5           2             8    2     1       0.2113144863E-03       8    2    1         0.5487871920E-02      0.3373486831E-01
          0                 6           1             8    2     1       0.9497594355E-04       8    2    1         0.2466545113E-02      0.1508966897E-01
          0                 7           1             8    2     1       0.4268713932E-04       8    2    1         0.1108595841E-02      0.6754821280E-02
          0                 8           1             8    2     1       0.1918578453E-04       8    2    1         0.4982605542E-03      0.3024248385E-02
          0                 9           1             8    2     1       0.8623054680E-05       8    2    1         0.2239436974E-03      0.1354099164E-02

    ------------------------------------------------
       NWT REQUIRED            9 OUTER ITERATIONS 
       AND A TOTAL OF         14 INNER ITERATIONS.
    ------------------------------------------------

 OUTPUT CONTROL FOR STRESS PERIOD    5   TIME STEP    5
    PRINT BUDGET
    SAVE BUDGET
 UBUDSV SAVING "         STORAGE" ON UNIT102 AT TIME STEP     5, STRESS PERIOD    5
 UBUDSV SAVING "   CONSTANT HEAD" ON UNIT102 AT TIME STEP     5, STRESS PERIOD    5
 UBUDSV SAVING "FLOW RIGHT FACE " ON UNIT102 AT TIME STEP     5, STRESS PERIOD    5
 UBUDSV SAVING "FLOW FRONT FACE " ON UNIT102 AT TIME STEP     5, STRESS PERIOD    5

  HEAD DEP BOUNDS   PERIOD    5   STEP     5
 BOUNDARY      1   LAYER   1   ROW    13   COL     1   RATE   -0.295712    
 BOUNDARY      2   LAYER   1   ROW    14   COL     9   RATE    0.276114    



 STREAM LISTING     PERIOD      5   STEP        5

 LAYER ROW COL. STREAM  RCH.  FLOW INTO     FLOW TO   FLOW OUT OF   OVRLND.     DIRECT     STREAM       STREAM     STREAM     STREAM   STREAMBED  STREAMBED
                SEG.NO.  NO.  STRM. RCH.    AQUIFER    STRM. RCH.    RUNOFF     PRECIP       ET          HEAD       DEPTH      WIDTH   CONDCTNC.   GRADIENT

   1    1    1     1     1    7.7000E+01  4.2703E-01   7.6573E+01  0.000E+00  0.000E+00  0.000E+00  1.09476E+03  1.708E+00  2.016E+01  9.070E-02  1.569E+00
   1    2    2     1     2    7.6573E+01  6.6237E-01   7.5911E+01  0.000E+00  0.000E+00  0.000E+00  1.08976E+03  1.706E+00  2.011E+01  1.408E-01  1.569E+00
   1    3    3     1     3    7.5911E+01  5.6590E-01   7.5345E+01  0.000E+00  0.000E+00  0.000E+00  1.08412E+03  1.703E+00  2.006E+01  1.203E-01  1.568E+00
   1    3    4     1     4    7.5345E+01  5.2193E-01   7.4823E+01  0.000E+00  0.000E+00  0.000E+00  1.07911E+03  1.700E+00  2.001E+01  1.110E-01  1.567E+00
   1    4    5     2     1    7.2823E+01  4.1259E-01   7.2410E+01  0.000E+00  0.000E+00  0.000E+00  1.07422E+03  2.290E+00  1.200E+01  7.800E-02  1.763E+00
   1    5    6     2     2    7.2410E+01  3.1696E-01   7.2093E+01  0.000E+00  0.000E+00  0.000E+00  1.06879E+03  2.283E+00  1.200E+01  6.000E-02  1.761E+00
   1    6    6     2     3    7.2093E+01  3.1660E-01   7.1777E+01  0.000E+00  0.000E+00  0.000E+00  1.06407E+03  2.277E+00  1.200E+01  6.000E-02  1.759E+00
   1    7    6     2     4    7.1777E+01  3.1624E-01   7.1460E+01  0.000E+00  0.000E+00  0.000E+00  1.05935E+03  2.271E+00  1.200E+01  6.000E-02  1.757E+00
   1    8    6     2     5    7.1460E+01  3.1588E-01   7.1144E+01  0.000E+00  0.000E+00  0.000E+00  1.05462E+03  2.265E+00  1.200E+01  6.000E-02  1.755E+00
   1    3    5     3     1    2.0000E+00  2.8252E-01   1.7175E+00  0.000E+00  0.000E+00  0.000E+00  1.07555E+03  1.909E+00  9.636E+00  7.227E-02  1.955E+00
   1    3    6     3     2    1.7175E+00  2.4905E-01   1.4684E+00  0.000E+00  0.000E+00  0.000E+00  1.07264E+03  1.727E+00  8.909E+00  6.682E-02  1.864E+00
   1    3    7     3     3    1.4684E+00  1.9718E-01   1.2712E+00  0.000E+00  0.000E+00  0.000E+00  1.06987E+03  1.555E+00  8.218E+00  5.547E-02  1.777E+00
   1    4    8     3     4    1.2712E+00  2.2567E-01   1.0456E+00  0.000E+00  0.000E+00  0.000E+00  1.06682E+03  1.364E+00  7.455E+00  6.709E-02  1.682E+00
   1    5    8     3     5    1.0456E+00  1.5790E-01   8.8768E-01  0.000E+00  0.000E+00  0.000E+00  1.06362E+03  1.164E+00  6.655E+00  4.991E-02  1.582E+00
   1    6    8     3     6    8.8768E-01  5.5980E-02   8.3170E-01  0.000E+00  0.000E+00  0.000E+00  1.06158E+03  1.036E+00  6.145E+00  1.844E-02  1.518E+00
   1    5   10     4     1    1.0000E+01  9.0919E-02   9.9091E+00  0.000E+00  0.000E+00  0.000E+00  1.07836E+03  6.368E-01  1.000E+01  2.500E-02  1.212E+00
   1    5    9     4     2    9.9091E+00  1.8158E-01   9.7275E+00  0.000E+00  0.000E+00  0.000E+00  1.07154E+03  6.315E-01  1.000E+01  5.000E-02  1.211E+00
   1    6    8     4     3    9.7275E+00  1.2689E-01   9.6006E+00  0.000E+00  0.000E+00  0.000E+00  1.06381E+03  6.256E-01  1.000E+01  3.500E-02  1.209E+00
   1    6    8     5     1    1.0432E+01  2.2686E-01   1.0205E+01  0.000E+00  0.000E+00  0.000E+00  1.05868E+03  6.790E-01  1.542E+01  6.166E-02  1.226E+00
   1    7    7     5     2    1.0205E+01  2.7894E-01   9.9265E+00  0.000E+00  0.000E+00  0.000E+00  1.05417E+03  6.732E-01  1.519E+01  7.594E-02  1.224E+00
   1    8    7     5     3    9.9265E+00  1.9221E-01   9.7343E+00  0.000E+00  0.000E+00  0.000E+00  1.04992E+03  6.676E-01  1.497E+01  5.241E-02  1.223E+00
   1    8    6     5     4    9.7343E+00  1.3577E-01   9.5985E+00  0.000E+00  0.000E+00  0.000E+00  1.04691E+03  6.637E-01  1.482E+01  3.706E-02  1.221E+00
   1    9    6     6     1    8.0743E+01  3.2786E-01   8.0415E+01  0.000E+00  0.000E+00  0.000E+00  1.04519E+03  2.464E+00  1.200E+01  6.000E-02  1.821E+00
   1   10    7     6     2    8.0415E+01  3.2750E-01   8.0088E+01  0.000E+00  0.000E+00  0.000E+00  1.04064E+03  2.458E+00  1.200E+01  6.000E-02  1.819E+00
   1   11    7     6     3    8.0088E+01  3.2714E-01   7.9761E+01  0.000E+00  0.000E+00  0.000E+00  1.03609E+03  2.452E+00  1.200E+01  6.000E-02  1.817E+00
   1   12    7     6     4    7.9761E+01  3.2678E-01   7.9434E+01  0.000E+00  0.000E+00  0.000E+00  1.03154E+03  2.446E+00  1.200E+01  6.000E-02  1.815E+00
   1   13    7     6     5    7.9434E+01  2.0942E-02   7.9413E+01  0.000E+00  0.000E+00  0.000E+00  1.02835E+03  2.443E+00  1.200E+01  2.400E-02  2.909E-01
   1   14    9     7     1    1.5000E+02  1.1941E+00   1.4881E+02  0.000E+00  0.000E+00  0.000E+00  1.03987E+03  2.288E+00  5.530E+01  5.593E-01  7.116E-01
   1   13    8     7     2    1.4881E+02  1.6344E+00   1.4717E+02  0.000E+00  0.000E+00  0.000E+00  1.03478E+03  2.281E+00  5.526E+01  6.148E-01  8.861E-01
   1   13    7     7     3    1.4717E+02  1.2359E+00   1.4594E+02  0.000E+00  0.000E+00  0.000E+00  1.02969E+03  2.273E+00  5.523E+01  5.586E-01  7.376E-01
   1   13    6     8     1    2.2535E+02  9.3623E-01   2.2441E+02  0.000E+00  0.000E+00  0.000E+00  1.02515E+03  3.279E+00  4.754E+01  4.845E-01  6.442E-01
   1   13    5     8     2    2.2441E+02  1.3663E-01   2.2428E+02  0.000E+00  0.000E+00  0.000E+00  1.01890E+03  3.276E+00  4.750E+01  4.840E-01  9.409E-02
   1   13    4     8     3    2.2428E+02 -2.5154E+00   2.2679E+02  0.000E+00  0.000E+00  0.000E+00  1.01266E+03  3.282E+00  4.759E+01  4.850E+00 -1.729E-01
   1   13    3     8     4    2.2679E+02 -3.5753E+00   2.3037E+02  0.000E+00  0.000E+00  0.000E+00  1.00642E+03  3.299E+00  4.783E+01  4.874E+00 -2.445E-01
   1   13    2     8     5    2.3037E+02 -2.3258E+00   2.3269E+02  0.000E+00  0.000E+00  0.000E+00  1.00019E+03  3.315E+00  4.806E+01  4.898E+00 -1.583E-01
   1   13    1     8     6    2.3269E+02 -1.7139E+00   2.3441E+02  0.000E+00  0.000E+00  0.000E+00  9.95201E+02  3.326E+00  4.822E+01  2.948E+00 -1.938E-01
   1    6    8     9     1    0.0000E+00  0.0000E+00   0.0000E+00  0.000E+00  0.000E+00  0.000E+00  1.07850E+03  0.000E+00  4.000E+00  0.000E+00  1.000E+00



 UBDSV3 SAVING "     NETRECHARGE" ON UNIT 100 AT TIME STEP     5, STRESS PERIOD   5
 UBDSV3 SAVING "    NETDISCHARGE" ON UNIT 101 AT TIME STEP     5, STRESS PERIOD   5
 UBDSV3 SAVING "           GW ET" ON UNIT  61 AT TIME STEP     5, STRESS PERIOD   5
 UBDSV3 SAVING "    UZF RECHARGE" ON UNIT  61 AT TIME STEP     5, STRESS PERIOD   5
 UBDSV3 SAVING " SURFACE LEAKAGE" ON UNIT  61 AT TIME STEP     5, STRESS PERIOD   5
 UBDSV3 SAVING "       HORT+DUNN" ON UNIT  61 AT TIME STEP     5, STRESS PERIOD   5
 UBDSV3 SAVING "  STORAGE CHANGE" ON UNIT  61 AT TIME STEP     5, STRESS PERIOD   5


UNSATURATED ZONE PACKAGE VOLUMETRIC BUDGET FOR  TIME STEP     5 STRESS PERIOD    5
  ------------------------------------------------------------------------------



     CUMULATIVE VOLUMES      L**3       RATES FOR THIS TIME STEP      L**3/T
     ------------------                 ------------------------

           IN:                                      IN:
           ---                                      ---
        INFILTRATION =      183082.4255          INFILTRATION =       0.0000E+00

          OUT:                                     OUT:
          ----                                     ----
              UZF ET =     8637353.9232                UZF ET =          14.5000
        UZF RECHARGE =   224788011.9002          UZF RECHARGE =          26.6506

            IN - OUT =  -233242283.3979              IN - OUT =         -41.1506

          STORAGE:                                 STORAGE:
          --------                                 --------
      STORAGE CHANGE =  -233230315.3853        STORAGE CHANGE =         -41.1380

 PERCENT DISCREPANCY IS DIFFERENCE BETWEEN IN-OUT MINUS CHANGE IN STORAGE
 DIVIDED BY THE AVERAGE OF IN AND OUT TIMES 100

 PERCENT DISCREPANCY =          -0.00     PERCENT DISCREPANCY =          -0.03






1
  VOLUMETRIC BUDGET FOR ENTIRE MODEL AT END OF TIME STEP    5, STRESS PERIOD   5
  ------------------------------------------------------------------------------

     CUMULATIVE VOLUMES      L**3       RATES FOR THIS TIME STEP      L**3/T
     ------------------                 ------------------------

           IN:                                      IN:
           ---                                      ---
             STORAGE     =     1005878.5625               STORAGE     =           0.0000
       CONSTANT HEAD     =           0.0000         CONSTANT HEAD     =           0.0000
               WELLS     =           0.0000                 WELLS     =           0.0000
     HEAD DEP BOUNDS     =     2356697.7500       HEAD DEP BOUNDS     =           0.2761
      STREAM LEAKAGE     =    93298992.0000        STREAM LEAKAGE     =          12.7246
        UZF RECHARGE     =   224788000.0000          UZF RECHARGE     =          26.6506
               GW ET     =           0.0000                 GW ET     =           0.0000
     SURFACE LEAKAGE     =           0.0000       SURFACE LEAKAGE     =           0.0000
    SUPPLEMENTARY WELLS  =           0.0000      SUPPLEMENTARY WELLS  =           0.0000

                TOTAL IN =   321449568.0000                  TOTAL IN =          39.6513

          OUT:                                     OUT:
          ----                                     ----
             STORAGE     =   224882128.0000               STORAGE     =          29.2207
       CONSTANT HEAD     =           0.0000         CONSTANT HEAD     =           0.0000
               WELLS     =           0.0000                 WELLS     =           0.0000
     HEAD DEP BOUNDS     =     2438989.7500       HEAD DEP BOUNDS     =           0.2957
      STREAM LEAKAGE     =    93904120.0000        STREAM LEAKAGE     =          10.1303
        UZF RECHARGE     =           0.0000          UZF RECHARGE     =           0.0000
               GW ET     =      151085.3438                 GW ET     =       1.9427E-08
     SURFACE LEAKAGE     =           0.0000       SURFACE LEAKAGE     =           0.0000
    SUPPLEMENTARY WELLS  =       31277.0352      SUPPLEMENTARY WELLS  =           0.0000

               TOTAL OUT =   321407584.0000                 TOTAL OUT =          39.6467

                IN - OUT =       41984.0000                  IN - OUT =       4.5738E-03

     PERCENT DISCREPANCY =           0.01         PERCENT DISCREPANCY =           0.01






         TIME SUMMARY AT END OF TIME STEP    5 IN STRESS PERIOD    5
                    SECONDS     MINUTES      HOURS       DAYS        YEARS
                    -----------------------------------------------------------
   TIME STEP LENGTH  87600.      1460.0      24.333      1.0139     2.77588E-03
 STRESS PERIOD TIME 4.38000E+05  7300.0      121.67      5.0694     1.38794E-02
         TOTAL TIME 8.40840E+06 1.40140E+05  2335.7      97.319     0.26645    
1
 
 SOLVING FOR HEAD 
                                                   Max.-Head-Change                         Max.-Flux-Residual
  Residual-Control   Outer-Iter.   Inner-Iter.     Column Row Layer    Maximum-Head-Change  Column Row Layer    Maximum-Flux-Residual          L2-NORM 
          0                 1           2             2    2     1       0.1104000706E-01       2    2    1         0.5755994001E+00      0.2034944953E+01
          0                 2           2             8    2     1       0.2326723974E-02       2    2    1         0.9997413647E-01      0.4757334253E+00
          0                 3           2             8    2     1       0.1045757697E-02       8    2    1         0.2715844978E-01      0.1753464560E+00
          0                 4           2             8    2     1       0.4700200334E-03       8    2    1         0.1220649641E-01      0.7571919191E-01
          0                 5           2             8    2     1       0.2112519663E-03       8    2    1         0.5486257240E-02      0.3370738173E-01
          0                 6           1             8    2     1       0.9494765424E-04       8    2    1         0.2465814457E-02      0.1507726859E-01
          0                 7           1             8    2     1       0.4267433939E-04       8    2    1         0.1108265233E-02      0.6749217024E-02
          0                 8           1             8    2     1       0.1917999346E-04       8    2    1         0.4981109708E-03      0.3021718073E-02
          0                 9           1             8    2     1       0.8620435017E-05       8    2    1         0.2238760241E-03      0.1352965575E-02

    ------------------------------------------------
       NWT REQUIRED            9 OUTER ITERATIONS 
       AND A TOTAL OF         14 INNER ITERATIONS.
    ------------------------------------------------

 NO OUTPUT CONTROL FOR STRESS PERIOD    5   TIME STEP    6
 
 SOLVING FOR HEAD 
                                                   Max.-Head-Change                         Max.-Flux-Residual
  Residual-Control   Outer-Iter.   Inner-Iter.     Column Row Layer    Maximum-Head-Change  Column Row Layer    Maximum-Flux-Residual          L2-NORM 
          0                 1           2             2    2     1       0.1098674942E-01       2    2    1         0.5727960800E+00      0.2007993292E+01
          0                 2           2             8    2     1       0.2326043522E-02       2    2    1         0.9949451818E-01      0.4747394484E+00
          0                 3           2             8    2     1       0.1045449776E-02       1    2    1         0.2715090784E-01      0.1751722537E+00
          0                 4           2             8    2     1       0.4698807003E-03       8    2    1         0.1220289781E-01      0.7565338413E-01
          0                 5           2             8    2     1       0.2111889218E-03       8    2    1         0.5484628894E-02      0.3367817921E-01
          0                 6           1             8    2     1       0.9491912983E-04       8    2    1         0.2465077685E-02      0.1506410265E-01
          0                 7           1             8    2     1       0.4266143416E-04       8    2    1         0.1107931888E-02      0.6743275943E-02
          0                 8           1             8    2     1       0.1917415537E-04       8    2    1         0.4979601636E-03      0.3019036782E-02
          0                 9           1             8    2     1       0.8617794095E-05       8    2    1         0.2238078011E-03      0.1351747443E-02

    ------------------------------------------------
       NWT REQUIRED            9 OUTER ITERATIONS 
       AND A TOTAL OF         14 INNER ITERATIONS.
    ------------------------------------------------

 NO OUTPUT CONTROL FOR STRESS PERIOD    5   TIME STEP    7
 
 SOLVING FOR HEAD 
                                                   Max.-Head-Change                         Max.-Flux-Residual
  Residual-Control   Outer-Iter.   Inner-Iter.     Column Row Layer    Maximum-Head-Change  Column Row Layer    Maximum-Flux-Residual          L2-NORM 
          0                 1           2             2    2     1       0.1093443327E-01       2    2    1         0.5700424305E+00      0.1985086669E+01
          0                 2           2             1    2     1       0.2328036230E-02       2    2    1         0.9902336702E-01      0.4738228908E+00
          0                 3           2             1    2     1       0.1045857232E-02       1    2    1         0.2717508138E-01      0.1749957020E+00
          0                 4           2             8    2     1       0.4697403550E-03       1    2    1         0.1220625296E-01      0.7558500855E-01
          0                 5           2             8    2     1       0.2111254424E-03       8    2    1         0.5482988833E-02      0.3364781604E-01
          0                 6           1             8    2     1       0.9489041908E-04       8    2    1         0.2464335876E-02      0.1505042845E-01
          0                 7           1             8    2     1       0.4264844939E-04       8    2    1         0.1107596378E-02      0.6737110503E-02
          0                 8           1             8    2     1       0.1916828301E-04       8    2    1         0.4978084238E-03      0.3016257445E-02
          0                 9           1             8    2     1       0.8615138165E-05       8    2    1         0.2237391791E-03      0.1350494682E-02

    ------------------------------------------------
       NWT REQUIRED            9 OUTER ITERATIONS 
       AND A TOTAL OF         14 INNER ITERATIONS.
    ------------------------------------------------

 NO OUTPUT CONTROL FOR STRESS PERIOD    5   TIME STEP    8
 
 SOLVING FOR HEAD 
                                                   Max.-Head-Change                         Max.-Flux-Residual
  Residual-Control   Outer-Iter.   Inner-Iter.     Column Row Layer    Maximum-Head-Change  Column Row Layer    Maximum-Flux-Residual          L2-NORM 
          0                 1           2             2    2     1       0.1088303725E-01       2    2    1         0.5673373068E+00      0.1964899526E+01
          0                 2           2             1    2     1       0.2330073723E-02       2    2    1         0.9856049304E-01      0.4729264088E+00
          0                 3           2             1    2     1       0.1046769251E-02       1    2    1         0.2719883620E-01      0.1748062482E+00
          0                 4           2             1    2     1       0.4700434303E-03       1    2    1         0.1221689144E-01      0.7551167739E-01
          0                 5           2             8    2     1       0.2110613915E-03       1    2    1         0.5485551460E-02      0.3361542596E-01
          0                 6           1             8    2     1       0.9486144471E-04       8    2    1         0.2463587362E-02      0.1503587098E-01
          0                 7           1             8    2     1       0.4263534282E-04       8    2    1         0.1107257775E-02      0.6730554592E-02
          0                 8           1             8    2     1       0.1916235438E-04       8    2    1         0.4976552609E-03      0.3013305111E-02
          0                 9           1             8    2     1       0.8612457225E-05       8    2    1         0.2236699050E-03      0.1349166322E-02

    ------------------------------------------------
       NWT REQUIRED            9 OUTER ITERATIONS 
       AND A TOTAL OF         14 INNER ITERATIONS.
    ------------------------------------------------

 NO OUTPUT CONTROL FOR STRESS PERIOD    5   TIME STEP    9
 
 SOLVING FOR HEAD 
                                                   Max.-Head-Change                         Max.-Flux-Residual
  Residual-Control   Outer-Iter.   Inner-Iter.     Column Row Layer    Maximum-Head-Change  Column Row Layer    Maximum-Flux-Residual          L2-NORM 
          0                 1           2             2    2     1       0.1083262877E-01       2    2    1         0.5646842467E+00      0.1948154743E+01
          0                 2           2             1    2     1       0.2332075918E-02       2    2    1         0.9810650410E-01      0.4720584286E+00
          0                 3           2             1    2     1       0.1047665456E-02       1    2    1         0.2722217942E-01      0.1746173653E+00
          0                 4           2             1    2     1       0.4704451349E-03       1    2    1         0.1222734545E-01      0.7543737176E-01
          0                 5           2             1    2     1       0.2112128537E-03       1    2    1         0.5490238151E-02      0.3358240079E-01
          0                 6           1             8    2     1       0.9483225751E-04       1    2    1         0.2464858224E-02      0.1502101576E-01
          0                 7           1             8    2     1       0.4262214271E-04       8    2    1         0.1106916709E-02      0.6723866623E-02
          0                 8           1             8    2     1       0.1915638498E-04       8    2    1         0.4975010119E-03      0.3010294537E-02
          0                 9           1             8    2     1       0.8609757527E-05       8    2    1         0.2236001462E-03      0.1347810799E-02

    ------------------------------------------------
       NWT REQUIRED            9 OUTER ITERATIONS 
       AND A TOTAL OF         14 INNER ITERATIONS.
    ------------------------------------------------

 OUTPUT CONTROL FOR STRESS PERIOD    5   TIME STEP   10
    PRINT BUDGET
    SAVE BUDGET
 UBUDSV SAVING "         STORAGE" ON UNIT102 AT TIME STEP    10, STRESS PERIOD    5
 UBUDSV SAVING "   CONSTANT HEAD" ON UNIT102 AT TIME STEP    10, STRESS PERIOD    5
 UBUDSV SAVING "FLOW RIGHT FACE " ON UNIT102 AT TIME STEP    10, STRESS PERIOD    5
 UBUDSV SAVING "FLOW FRONT FACE " ON UNIT102 AT TIME STEP    10, STRESS PERIOD    5

  HEAD DEP BOUNDS   PERIOD    5   STEP    10
 BOUNDARY      1   LAYER   1   ROW    13   COL     1   RATE   -0.296786    
 BOUNDARY      2   LAYER   1   ROW    14   COL     9   RATE    0.275746    



 STREAM LISTING     PERIOD      5   STEP       10

 LAYER ROW COL. STREAM  RCH.  FLOW INTO     FLOW TO   FLOW OUT OF   OVRLND.     DIRECT     STREAM       STREAM     STREAM     STREAM   STREAMBED  STREAMBED
                SEG.NO.  NO.  STRM. RCH.    AQUIFER    STRM. RCH.    RUNOFF     PRECIP       ET          HEAD       DEPTH      WIDTH   CONDCTNC.   GRADIENT

   1    1    1     1     1    7.7000E+01  4.2703E-01   7.6573E+01  0.000E+00  0.000E+00  0.000E+00  1.09476E+03  1.708E+00  2.016E+01  9.070E-02  1.569E+00
   1    2    2     1     2    7.6573E+01  6.6237E-01   7.5911E+01  0.000E+00  0.000E+00  0.000E+00  1.08976E+03  1.706E+00  2.011E+01  1.408E-01  1.569E+00
   1    3    3     1     3    7.5911E+01  5.6590E-01   7.5345E+01  0.000E+00  0.000E+00  0.000E+00  1.08412E+03  1.703E+00  2.006E+01  1.203E-01  1.568E+00
   1    3    4     1     4    7.5345E+01  5.2193E-01   7.4823E+01  0.000E+00  0.000E+00  0.000E+00  1.07911E+03  1.700E+00  2.001E+01  1.110E-01  1.567E+00
   1    4    5     2     1    7.2823E+01  4.1259E-01   7.2410E+01  0.000E+00  0.000E+00  0.000E+00  1.07422E+03  2.290E+00  1.200E+01  7.800E-02  1.763E+00
   1    5    6     2     2    7.2410E+01  3.1696E-01   7.2093E+01  0.000E+00  0.000E+00  0.000E+00  1.06879E+03  2.283E+00  1.200E+01  6.000E-02  1.761E+00
   1    6    6     2     3    7.2093E+01  3.1660E-01   7.1777E+01  0.000E+00  0.000E+00  0.000E+00  1.06407E+03  2.277E+00  1.200E+01  6.000E-02  1.759E+00
   1    7    6     2     4    7.1777E+01  3.1624E-01   7.1460E+01  0.000E+00  0.000E+00  0.000E+00  1.05935E+03  2.271E+00  1.200E+01  6.000E-02  1.757E+00
   1    8    6     2     5    7.1460E+01  3.1588E-01   7.1144E+01  0.000E+00  0.000E+00  0.000E+00  1.05462E+03  2.265E+00  1.200E+01  6.000E-02  1.755E+00
   1    3    5     3     1    2.0000E+00  2.8252E-01   1.7175E+00  0.000E+00  0.000E+00  0.000E+00  1.07555E+03  1.909E+00  9.636E+00  7.227E-02  1.955E+00
   1    3    6     3     2    1.7175E+00  2.4905E-01   1.4684E+00  0.000E+00  0.000E+00  0.000E+00  1.07264E+03  1.727E+00  8.909E+00  6.682E-02  1.864E+00
   1    3    7     3     3    1.4684E+00  1.9718E-01   1.2712E+00  0.000E+00  0.000E+00  0.000E+00  1.06987E+03  1.555E+00  8.218E+00  5.547E-02  1.777E+00
   1    4    8     3     4    1.2712E+00  2.2567E-01   1.0456E+00  0.000E+00  0.000E+00  0.000E+00  1.06682E+03  1.364E+00  7.455E+00  6.709E-02  1.682E+00
   1    5    8     3     5    1.0456E+00  1.5790E-01   8.8768E-01  0.000E+00  0.000E+00  0.000E+00  1.06362E+03  1.164E+00  6.655E+00  4.991E-02  1.582E+00
   1    6    8     3     6    8.8768E-01  5.5980E-02   8.3170E-01  0.000E+00  0.000E+00  0.000E+00  1.06158E+03  1.036E+00  6.145E+00  1.844E-02  1.518E+00
   1    5   10     4     1    1.0000E+01  9.0919E-02   9.9091E+00  0.000E+00  0.000E+00  0.000E+00  1.07836E+03  6.368E-01  1.000E+01  2.500E-02  1.212E+00
   1    5    9     4     2    9.9091E+00  1.8158E-01   9.7275E+00  0.000E+00  0.000E+00  0.000E+00  1.07154E+03  6.315E-01  1.000E+01  5.000E-02  1.211E+00
   1    6    8     4     3    9.7275E+00  1.2689E-01   9.6006E+00  0.000E+00  0.000E+00  0.000E+00  1.06381E+03  6.256E-01  1.000E+01  3.500E-02  1.209E+00
   1    6    8     5     1    1.0432E+01  2.2686E-01   1.0205E+01  0.000E+00  0.000E+00  0.000E+00  1.05868E+03  6.790E-01  1.542E+01  6.166E-02  1.226E+00
   1    7    7     5     2    1.0205E+01  2.7894E-01   9.9265E+00  0.000E+00  0.000E+00  0.000E+00  1.05417E+03  6.732E-01  1.519E+01  7.594E-02  1.224E+00
   1    8    7     5     3    9.9265E+00  1.9221E-01   9.7343E+00  0.000E+00  0.000E+00  0.000E+00  1.04992E+03  6.676E-01  1.497E+01  5.241E-02  1.223E+00
   1    8    6     5     4    9.7343E+00  1.3577E-01   9.5985E+00  0.000E+00  0.000E+00  0.000E+00  1.04691E+03  6.637E-01  1.482E+01  3.706E-02  1.221E+00
   1    9    6     6     1    8.0743E+01  3.2786E-01   8.0415E+01  0.000E+00  0.000E+00  0.000E+00  1.04519E+03  2.464E+00  1.200E+01  6.000E-02  1.821E+00
   1   10    7     6     2    8.0415E+01  3.2750E-01   8.0088E+01  0.000E+00  0.000E+00  0.000E+00  1.04064E+03  2.458E+00  1.200E+01  6.000E-02  1.819E+00
   1   11    7     6     3    8.0088E+01  3.2714E-01   7.9761E+01  0.000E+00  0.000E+00  0.000E+00  1.03609E+03  2.452E+00  1.200E+01  6.000E-02  1.817E+00
   1   12    7     6     4    7.9761E+01  3.2678E-01   7.9434E+01  0.000E+00  0.000E+00  0.000E+00  1.03154E+03  2.446E+00  1.200E+01  6.000E-02  1.815E+00
   1   13    7     6     5    7.9434E+01  2.0585E-02   7.9413E+01  0.000E+00  0.000E+00  0.000E+00  1.02835E+03  2.443E+00  1.200E+01  2.400E-02  2.859E-01
   1   14    9     7     1    1.5000E+02  1.1887E+00   1.4881E+02  0.000E+00  0.000E+00  0.000E+00  1.03987E+03  2.288E+00  5.530E+01  5.593E-01  7.084E-01
   1   13    8     7     2    1.4881E+02  1.6266E+00   1.4718E+02  0.000E+00  0.000E+00  0.000E+00  1.03478E+03  2.281E+00  5.526E+01  6.148E-01  8.818E-01
   1   13    7     7     3    1.4718E+02  1.2277E+00   1.4596E+02  0.000E+00  0.000E+00  0.000E+00  1.02969E+03  2.273E+00  5.523E+01  5.586E-01  7.326E-01
   1   13    6     8     1    2.2537E+02  9.2435E-01   2.2445E+02  0.000E+00  0.000E+00  0.000E+00  1.02515E+03  3.279E+00  4.754E+01  4.845E-01  6.360E-01
   1   13    5     8     2    2.2445E+02  1.2501E-01   2.2432E+02  0.000E+00  0.000E+00  0.000E+00  1.01890E+03  3.276E+00  4.750E+01  4.841E-01  8.608E-02
   1   13    4     8     3    2.2432E+02 -2.6592E+00   2.2698E+02  0.000E+00  0.000E+00  0.000E+00  1.01266E+03  3.283E+00  4.760E+01  4.851E+00 -1.827E-01
   1   13    3     8     4    2.2698E+02 -3.7141E+00   2.3069E+02  0.000E+00  0.000E+00  0.000E+00  1.00643E+03  3.300E+00  4.785E+01  4.876E+00 -2.539E-01
   1   13    2     8     5    2.3069E+02 -2.4725E+00   2.3317E+02  0.000E+00  0.000E+00  0.000E+00  1.00019E+03  3.317E+00  4.810E+01  4.901E+00 -1.682E-01
   1   13    1     8     6    2.3317E+02 -1.7906E+00   2.3496E+02  0.000E+00  0.000E+00  0.000E+00  9.95203E+02  3.328E+00  4.826E+01  2.951E+00 -2.023E-01
   1    6    8     9     1    0.0000E+00  0.0000E+00   0.0000E+00  0.000E+00  0.000E+00  0.000E+00  1.07850E+03  0.000E+00  4.000E+00  0.000E+00  1.000E+00



 UBDSV3 SAVING "     NETRECHARGE" ON UNIT 100 AT TIME STEP    10, STRESS PERIOD   5
 UBDSV3 SAVING "    NETDISCHARGE" ON UNIT 101 AT TIME STEP    10, STRESS PERIOD   5
 UBDSV3 SAVING "           GW ET" ON UNIT  61 AT TIME STEP    10, STRESS PERIOD   5
 UBDSV3 SAVING "    UZF RECHARGE" ON UNIT  61 AT TIME STEP    10, STRESS PERIOD   5
 UBDSV3 SAVING " SURFACE LEAKAGE" ON UNIT  61 AT TIME STEP    10, STRESS PERIOD   5
 UBDSV3 SAVING "       HORT+DUNN" ON UNIT  61 AT TIME STEP    10, STRESS PERIOD   5
 UBDSV3 SAVING "  STORAGE CHANGE" ON UNIT  61 AT TIME STEP    10, STRESS PERIOD   5


UNSATURATED ZONE PACKAGE VOLUMETRIC BUDGET FOR  TIME STEP    10 STRESS PERIOD    5
  ------------------------------------------------------------------------------



     CUMULATIVE VOLUMES      L**3       RATES FOR THIS TIME STEP      L**3/T
     ------------------                 ------------------------

           IN:                                      IN:
           ---                                      ---
        INFILTRATION =      183082.4255          INFILTRATION =       0.0000E+00

          OUT:                                     OUT:
          ----                                     ----
              UZF ET =    14988350.6839                UZF ET =          14.5000
        UZF RECHARGE =   236396912.1594          UZF RECHARGE =          26.4082

            IN - OUT =  -251202180.4178              IN - OUT =         -40.9081

          STORAGE:                                 STORAGE:
          --------                                 --------
      STORAGE CHANGE =  -251186238.9260        STORAGE CHANGE =         -40.9008

 PERCENT DISCREPANCY IS DIFFERENCE BETWEEN IN-OUT MINUS CHANGE IN STORAGE
 DIVIDED BY THE AVERAGE OF IN AND OUT TIMES 100

 PERCENT DISCREPANCY =          -0.00     PERCENT DISCREPANCY =          -0.02






1
  VOLUMETRIC BUDGET FOR ENTIRE MODEL AT END OF TIME STEP   10, STRESS PERIOD   5
  ------------------------------------------------------------------------------

     CUMULATIVE VOLUMES      L**3       RATES FOR THIS TIME STEP      L**3/T
     ------------------                 ------------------------

           IN:                                      IN:
           ---                                      ---
             STORAGE     =     1005878.5625               STORAGE     =           0.0000
       CONSTANT HEAD     =           0.0000         CONSTANT HEAD     =           0.0000
               WELLS     =           0.0000                 WELLS     =           0.0000
     HEAD DEP BOUNDS     =     2477538.5000       HEAD DEP BOUNDS     =           0.2757
      STREAM LEAKAGE     =    98860240.0000        STREAM LEAKAGE     =          12.6792
        UZF RECHARGE     =   236396912.0000          UZF RECHARGE     =          26.4082
               GW ET     =           0.0000                 GW ET     =           0.0000
     SURFACE LEAKAGE     =           0.0000       SURFACE LEAKAGE     =           0.0000
    SUPPLEMENTARY WELLS  =           0.0000      SUPPLEMENTARY WELLS  =           0.0000

                TOTAL IN =   338740576.0000                  TOTAL IN =          39.3631

          OUT:                                     OUT:
          ----                                     ----
             STORAGE     =   237462848.0000               STORAGE     =          28.4253
       CONSTANT HEAD     =           0.0000         CONSTANT HEAD     =           0.0000
               WELLS     =           0.0000                 WELLS     =           0.0000
     HEAD DEP BOUNDS     =     2568805.0000       HEAD DEP BOUNDS     =           0.2968
      STREAM LEAKAGE     =    98482552.0000        STREAM LEAKAGE     =          10.6365
        UZF RECHARGE     =           0.0000          UZF RECHARGE     =           0.0000
               GW ET     =      151088.5781                 GW ET     =       3.6993E-05
     SURFACE LEAKAGE     =           0.0000       SURFACE LEAKAGE     =           0.0000
    SUPPLEMENTARY WELLS  =       31277.0352      SUPPLEMENTARY WELLS  =           0.0000

               TOTAL OUT =   338696576.0000                 TOTAL OUT =          39.3585

                IN - OUT =       44000.0000                  IN - OUT =       4.5433E-03

     PERCENT DISCREPANCY =           0.01         PERCENT DISCREPANCY =           0.01






         TIME SUMMARY AT END OF TIME STEP   10 IN STRESS PERIOD    5
                    SECONDS     MINUTES      HOURS       DAYS        YEARS
                    -----------------------------------------------------------
   TIME STEP LENGTH  87600.      1460.0      24.333      1.0139     2.77588E-03
 STRESS PERIOD TIME 8.76000E+05  14600.      243.33      10.139     2.77588E-02
         TOTAL TIME 8.84640E+06 1.47440E+05  2457.3      102.39     0.28033    
1
 
 SOLVING FOR HEAD 
                                                   Max.-Head-Change                         Max.-Flux-Residual
  Residual-Control   Outer-Iter.   Inner-Iter.     Column Row Layer    Maximum-Head-Change  Column Row Layer    Maximum-Flux-Residual          L2-NORM 
          0                 1           2             2    2     1       0.1078318603E-01       2    2    1         0.5620821179E+00      0.1932848194E+01
          0                 2           2             1    2     1       0.2334043400E-02       2    2    1         0.9766120256E-01      0.4713531030E+00
          0                 3           2             1    2     1       0.1048546112E-02       1    2    1         0.2724511789E-01      0.1744326897E+00
          0                 4           2             1    2     1       0.4708398631E-03       1    2    1         0.1223761802E-01      0.7536045729E-01
          0                 5           2             1    2     1       0.2113898723E-03       1    2    1         0.5494843426E-02      0.3354808408E-01
          0                 6           1             1    2     1       0.9489998658E-04       1    2    1         0.2466923643E-02      0.1500558544E-01
          0                 7           1             8    2     1       0.4260883505E-04       1    2    1         0.1107474123E-02      0.6716924446E-02
          0                 8           1             8    2     1       0.1915036681E-04       8    2    1         0.4973455028E-03      0.3007171499E-02
          0                 9           1             8    2     1       0.8607035818E-05       8    2    1         0.2235298175E-03      0.1346406482E-02

    ------------------------------------------------
       NWT REQUIRED            9 OUTER ITERATIONS 
       AND A TOTAL OF         14 INNER ITERATIONS.
    ------------------------------------------------

 NO OUTPUT CONTROL FOR STRESS PERIOD    5   TIME STEP   11
 
 SOLVING FOR HEAD 
                                                   Max.-Head-Change                         Max.-Flux-Residual
  Residual-Control   Outer-Iter.   Inner-Iter.     Column Row Layer    Maximum-Head-Change  Column Row Layer    Maximum-Flux-Residual          L2-NORM 
          0                 1           2             2    2     1       0.1073459928E-01       2    2    1         0.5595251489E+00      0.1920695987E+01
          0                 2           2             1    2     1       0.2335976681E-02       2    2    1         0.9722359930E-01      0.4707261605E+00
          0                 3           2             1    2     1       0.1049411441E-02       1    2    1         0.2726765752E-01      0.1742467289E+00
          0                 4           2             1    2     1       0.4712277153E-03       1    2    1         0.1224771179E-01      0.7528175988E-01
          0                 5           2             1    2     1       0.2115638043E-03       1    2    1         0.5499368466E-02      0.3351293903E-01
          0                 6           1             1    2     1       0.9497800196E-04       1    2    1         0.2468953047E-02      0.1498979063E-01
          0                 7           1             1    2     1       0.4263767261E-04       1    2    1         0.1108384418E-02      0.6709821121E-02
          0                 8           1             8    2     1       0.1914430361E-04       1    2    1         0.4975758447E-03      0.3003978191E-02
          0                 9           1             8    2     1       0.8604294601E-05       8    2    1         0.2234589686E-03      0.1344971097E-02

    ------------------------------------------------
       NWT REQUIRED            9 OUTER ITERATIONS 
       AND A TOTAL OF         14 INNER ITERATIONS.
    ------------------------------------------------

 NO OUTPUT CONTROL FOR STRESS PERIOD    5   TIME STEP   12
 
 SOLVING FOR HEAD 
                                                   Max.-Head-Change                         Max.-Flux-Residual
  Residual-Control   Outer-Iter.   Inner-Iter.     Column Row Layer    Maximum-Head-Change  Column Row Layer    Maximum-Flux-Residual          L2-NORM 
          0                 1           2             2    2     1       0.1068684915E-01       2    2    1         0.5570123136E+00      0.1910054315E+01
          0                 2           2             1    2     1       0.2337896719E-02       2    2    1         0.9679352067E-01      0.4701168777E+00
          0                 3           2             1    2     1       0.1050270856E-02       1    2    1         0.2729004290E-01      0.1740585477E+00
          0                 4           2             1    2     1       0.4716129169E-03       1    2    1         0.1225773659E-01      0.7520152371E-01
          0                 5           2             1    2     1       0.2117365470E-03       1    2    1         0.5503862580E-02      0.3347709705E-01
          0                 6           1             1    2     1       0.9505548336E-04       1    2    1         0.2470968567E-02      0.1497368593E-01
          0                 7           1             1    2     1       0.4267242854E-04       1    2    1         0.1109288478E-02      0.6702581102E-02
          0                 8           1             1    2     1       0.1915636972E-04       1    2    1         0.4979813839E-03      0.3000723265E-02
          0                 9           1             8    2     1       0.8601348543E-05       1    2    1         0.2235518860E-03      0.1343508775E-02

    ------------------------------------------------
       NWT REQUIRED            9 OUTER ITERATIONS 
       AND A TOTAL OF         14 INNER ITERATIONS.
    ------------------------------------------------

 NO OUTPUT CONTROL FOR STRESS PERIOD    5   TIME STEP   13
 
 SOLVING FOR HEAD 
                                                   Max.-Head-Change                         Max.-Flux-Residual
  Residual-Control   Outer-Iter.   Inner-Iter.     Column Row Layer    Maximum-Head-Change  Column Row Layer    Maximum-Flux-Residual          L2-NORM 
          0                 1           2             2    2     1       0.1064000474E-01       2    2    1         0.5545472239E+00      0.1900683746E+01
          0                 2           2             1    2     1       0.2339763147E-02       2    2    1         0.9637159157E-01      0.4695212403E+00
          0                 3           2             1    2     1       0.1051106233E-02       1    2    1         0.2731180296E-01      0.1738679212E+00
          0                 4           2             1    2     1       0.4719873301E-03       1    2    1         0.1226748091E-01      0.7511969422E-01
          0                 5           2             1    2     1       0.2119044473E-03       1    2    1         0.5508230819E-02      0.3344053663E-01
          0                 6           1             1    2     1       0.9513079080E-04       1    2    1         0.2472927582E-02      0.1495726602E-01
          0                 7           1             1    2     1       0.4270620829E-04       1    2    1         0.1110167169E-02      0.6695203600E-02
          0                 8           1             1    2     1       0.1917152245E-04       1    2    1         0.4983755332E-03      0.2997409724E-02
          0                 9           1             1    2     1       0.8606380027E-05       1    2    1         0.2237286917E-03      0.1342018885E-02

    ------------------------------------------------
       NWT REQUIRED            9 OUTER ITERATIONS 
       AND A TOTAL OF         14 INNER ITERATIONS.
    ------------------------------------------------

 NO OUTPUT CONTROL FOR STRESS PERIOD    5   TIME STEP   14
 
 SOLVING FOR HEAD 
                                                   Max.-Head-Change                         Max.-Flux-Residual
  Residual-Control   Outer-Iter.   Inner-Iter.     Column Row Layer    Maximum-Head-Change  Column Row Layer    Maximum-Flux-Residual          L2-NORM 
          0                 1           2             2    2     1       0.1059404626E-01       2    2    1         0.5521288511E+00      0.1892296787E+01
          0                 2           2             1    2     1       0.2341597018E-02       2    2    1         0.9595763223E-01      0.4689246019E+00
          0                 3           2             1    2     1       0.1051927024E-02       1    2    1         0.2733318340E-01      0.1736735877E+00
          0                 4           2             1    2     1       0.4723552014E-03       1    2    1         0.1227705508E-01      0.7503618028E-01
          0                 5           2             1    2     1       0.2120694098E-03       1    2    1         0.5512522691E-02      0.3340322382E-01
          0                 6           1             1    2     1       0.9520477940E-04       1    2    1         0.2474852316E-02      0.1494050890E-01
          0                 7           1             1    2     1       0.4273939627E-04       1    2    1         0.1111030470E-02      0.6687673653E-02
          0                 8           1             1    2     1       0.1918640881E-04       1    2    1         0.4987627656E-03      0.2994025498E-02
          0                 9           1             1    2     1       0.8613057492E-05       1    2    1         0.2239023936E-03      0.1340499772E-02

    ------------------------------------------------
       NWT REQUIRED            9 OUTER ITERATIONS 
       AND A TOTAL OF         14 INNER ITERATIONS.
    ------------------------------------------------

 OUTPUT CONTROL FOR STRESS PERIOD    5   TIME STEP   15
    PRINT BUDGET
    SAVE BUDGET
 UBUDSV SAVING "         STORAGE" ON UNIT102 AT TIME STEP    15, STRESS PERIOD    5
 UBUDSV SAVING "   CONSTANT HEAD" ON UNIT102 AT TIME STEP    15, STRESS PERIOD    5
 UBUDSV SAVING "FLOW RIGHT FACE " ON UNIT102 AT TIME STEP    15, STRESS PERIOD    5
 UBUDSV SAVING "FLOW FRONT FACE " ON UNIT102 AT TIME STEP    15, STRESS PERIOD    5

  HEAD DEP BOUNDS   PERIOD    5   STEP    15
 BOUNDARY      1   LAYER   1   ROW    13   COL     1   RATE   -0.297587    
 BOUNDARY      2   LAYER   1   ROW    14   COL     9   RATE    0.275388    



 STREAM LISTING     PERIOD      5   STEP       15

 LAYER ROW COL. STREAM  RCH.  FLOW INTO     FLOW TO   FLOW OUT OF   OVRLND.     DIRECT     STREAM       STREAM     STREAM     STREAM   STREAMBED  STREAMBED
                SEG.NO.  NO.  STRM. RCH.    AQUIFER    STRM. RCH.    RUNOFF     PRECIP       ET          HEAD       DEPTH      WIDTH   CONDCTNC.   GRADIENT

   1    1    1     1     1    7.7000E+01  4.2703E-01   7.6573E+01  0.000E+00  0.000E+00  0.000E+00  1.09476E+03  1.708E+00  2.016E+01  9.070E-02  1.569E+00
   1    2    2     1     2    7.6573E+01  6.6237E-01   7.5911E+01  0.000E+00  0.000E+00  0.000E+00  1.08976E+03  1.706E+00  2.011E+01  1.408E-01  1.569E+00
   1    3    3     1     3    7.5911E+01  5.6590E-01   7.5345E+01  0.000E+00  0.000E+00  0.000E+00  1.08412E+03  1.703E+00  2.006E+01  1.203E-01  1.568E+00
   1    3    4     1     4    7.5345E+01  5.2193E-01   7.4823E+01  0.000E+00  0.000E+00  0.000E+00  1.07911E+03  1.700E+00  2.001E+01  1.110E-01  1.567E+00
   1    4    5     2     1    7.2823E+01  4.1259E-01   7.2410E+01  0.000E+00  0.000E+00  0.000E+00  1.07422E+03  2.290E+00  1.200E+01  7.800E-02  1.763E+00
   1    5    6     2     2    7.2410E+01  3.1696E-01   7.2093E+01  0.000E+00  0.000E+00  0.000E+00  1.06879E+03  2.283E+00  1.200E+01  6.000E-02  1.761E+00
   1    6    6     2     3    7.2093E+01  3.1660E-01   7.1777E+01  0.000E+00  0.000E+00  0.000E+00  1.06407E+03  2.277E+00  1.200E+01  6.000E-02  1.759E+00
   1    7    6     2     4    7.1777E+01  3.1624E-01   7.1460E+01  0.000E+00  0.000E+00  0.000E+00  1.05935E+03  2.271E+00  1.200E+01  6.000E-02  1.757E+00
   1    8    6     2     5    7.1460E+01  3.1588E-01   7.1144E+01  0.000E+00  0.000E+00  0.000E+00  1.05462E+03  2.265E+00  1.200E+01  6.000E-02  1.755E+00
   1    3    5     3     1    2.0000E+00  2.8252E-01   1.7175E+00  0.000E+00  0.000E+00  0.000E+00  1.07555E+03  1.909E+00  9.636E+00  7.227E-02  1.955E+00
   1    3    6     3     2    1.7175E+00  2.4905E-01   1.4684E+00  0.000E+00  0.000E+00  0.000E+00  1.07264E+03  1.727E+00  8.909E+00  6.682E-02  1.864E+00
   1    3    7     3     3    1.4684E+00  1.9718E-01   1.2712E+00  0.000E+00  0.000E+00  0.000E+00  1.06987E+03  1.555E+00  8.218E+00  5.547E-02  1.777E+00
   1    4    8     3     4    1.2712E+00  2.2567E-01   1.0456E+00  0.000E+00  0.000E+00  0.000E+00  1.06682E+03  1.364E+00  7.455E+00  6.709E-02  1.682E+00
   1    5    8     3     5    1.0456E+00  1.5790E-01   8.8768E-01  0.000E+00  0.000E+00  0.000E+00  1.06362E+03  1.164E+00  6.655E+00  4.991E-02  1.582E+00
   1    6    8     3     6    8.8768E-01  5.5980E-02   8.3170E-01  0.000E+00  0.000E+00  0.000E+00  1.06158E+03  1.036E+00  6.145E+00  1.844E-02  1.518E+00
   1    5   10     4     1    1.0000E+01  9.0919E-02   9.9091E+00  0.000E+00  0.000E+00  0.000E+00  1.07836E+03  6.368E-01  1.000E+01  2.500E-02  1.212E+00
   1    5    9     4     2    9.9091E+00  1.8158E-01   9.7275E+00  0.000E+00  0.000E+00  0.000E+00  1.07154E+03  6.315E-01  1.000E+01  5.000E-02  1.211E+00
   1    6    8     4     3    9.7275E+00  1.2689E-01   9.6006E+00  0.000E+00  0.000E+00  0.000E+00  1.06381E+03  6.256E-01  1.000E+01  3.500E-02  1.209E+00
   1    6    8     5     1    1.0432E+01  2.2686E-01   1.0205E+01  0.000E+00  0.000E+00  0.000E+00  1.05868E+03  6.790E-01  1.542E+01  6.166E-02  1.226E+00
   1    7    7     5     2    1.0205E+01  2.7894E-01   9.9265E+00  0.000E+00  0.000E+00  0.000E+00  1.05417E+03  6.732E-01  1.519E+01  7.594E-02  1.224E+00
   1    8    7     5     3    9.9265E+00  1.9221E-01   9.7343E+00  0.000E+00  0.000E+00  0.000E+00  1.04992E+03  6.676E-01  1.497E+01  5.241E-02  1.223E+00
   1    8    6     5     4    9.7343E+00  1.3577E-01   9.5985E+00  0.000E+00  0.000E+00  0.000E+00  1.04691E+03  6.637E-01  1.482E+01  3.706E-02  1.221E+00
   1    9    6     6     1    8.0743E+01  3.2786E-01   8.0415E+01  0.000E+00  0.000E+00  0.000E+00  1.04519E+03  2.464E+00  1.200E+01  6.000E-02  1.821E+00
   1   10    7     6     2    8.0415E+01  3.2750E-01   8.0088E+01  0.000E+00  0.000E+00  0.000E+00  1.04064E+03  2.458E+00  1.200E+01  6.000E-02  1.819E+00
   1   11    7     6     3    8.0088E+01  3.2714E-01   7.9761E+01  0.000E+00  0.000E+00  0.000E+00  1.03609E+03  2.452E+00  1.200E+01  6.000E-02  1.817E+00
   1   12    7     6     4    7.9761E+01  3.2678E-01   7.9434E+01  0.000E+00  0.000E+00  0.000E+00  1.03154E+03  2.446E+00  1.200E+01  6.000E-02  1.815E+00
   1   13    7     6     5    7.9434E+01  2.0247E-02   7.9414E+01  0.000E+00  0.000E+00  0.000E+00  1.02835E+03  2.443E+00  1.200E+01  2.400E-02  2.812E-01
   1   14    9     7     1    1.5000E+02  1.1834E+00   1.4882E+02  0.000E+00  0.000E+00  0.000E+00  1.03987E+03  2.288E+00  5.530E+01  5.593E-01  7.053E-01
   1   13    8     7     2    1.4882E+02  1.6201E+00   1.4720E+02  0.000E+00  0.000E+00  0.000E+00  1.03478E+03  2.281E+00  5.526E+01  6.149E-01  8.783E-01
   1   13    7     7     3    1.4720E+02  1.2199E+00   1.4598E+02  0.000E+00  0.000E+00  0.000E+00  1.02969E+03  2.273E+00  5.523E+01  5.586E-01  7.280E-01
   1   13    6     8     1    2.2539E+02  9.1379E-01   2.2448E+02  0.000E+00  0.000E+00  0.000E+00  1.02515E+03  3.279E+00  4.755E+01  4.845E-01  6.287E-01
   1   13    5     8     2    2.2448E+02  1.1430E-01   2.2436E+02  0.000E+00  0.000E+00  0.000E+00  1.01890E+03  3.276E+00  4.751E+01  4.841E-01  7.870E-02
   1   13    4     8     3    2.2436E+02 -2.7503E+00   2.2711E+02  0.000E+00  0.000E+00  0.000E+00  1.01266E+03  3.283E+00  4.761E+01  4.852E+00 -1.890E-01
   1   13    3     8     4    2.2711E+02 -3.8028E+00   2.3092E+02  0.000E+00  0.000E+00  0.000E+00  1.00643E+03  3.301E+00  4.787E+01  4.878E+00 -2.599E-01
   1   13    2     8     5    2.3092E+02 -2.5550E+00   2.3347E+02  0.000E+00  0.000E+00  0.000E+00  1.00019E+03  3.318E+00  4.812E+01  4.903E+00 -1.737E-01
   1   13    1     8     6    2.3347E+02 -1.8485E+00   2.3532E+02  0.000E+00  0.000E+00  0.000E+00  9.95205E+02  3.330E+00  4.829E+01  2.952E+00 -2.087E-01
   1    6    8     9     1    0.0000E+00  0.0000E+00   0.0000E+00  0.000E+00  0.000E+00  0.000E+00  1.07850E+03  0.000E+00  4.000E+00  0.000E+00  1.000E+00



 UBDSV3 SAVING "     NETRECHARGE" ON UNIT 100 AT TIME STEP    15, STRESS PERIOD   5
 UBDSV3 SAVING "    NETDISCHARGE" ON UNIT 101 AT TIME STEP    15, STRESS PERIOD   5
 UBDSV3 SAVING "           GW ET" ON UNIT  61 AT TIME STEP    15, STRESS PERIOD   5
 UBDSV3 SAVING "    UZF RECHARGE" ON UNIT  61 AT TIME STEP    15, STRESS PERIOD   5
 UBDSV3 SAVING " SURFACE LEAKAGE" ON UNIT  61 AT TIME STEP    15, STRESS PERIOD   5
 UBDSV3 SAVING "       HORT+DUNN" ON UNIT  61 AT TIME STEP    15, STRESS PERIOD   5
 UBDSV3 SAVING "  STORAGE CHANGE" ON UNIT  61 AT TIME STEP    15, STRESS PERIOD   5


UNSATURATED ZONE PACKAGE VOLUMETRIC BUDGET FOR  TIME STEP    15 STRESS PERIOD    5
  ------------------------------------------------------------------------------



     CUMULATIVE VOLUMES      L**3       RATES FOR THIS TIME STEP      L**3/T
     ------------------                 ------------------------

           IN:                                      IN:
           ---                                      ---
        INFILTRATION =      183082.4255          INFILTRATION =       0.0000E+00

          OUT:                                     OUT:
          ----                                     ----
              UZF ET =    21339347.9749                UZF ET =          14.5000
        UZF RECHARGE =   247915529.8020          UZF RECHARGE =          26.2361

            IN - OUT =  -269071795.3515              IN - OUT =         -40.7361

          STORAGE:                                 STORAGE:
          --------                                 --------
      STORAGE CHANGE =  -269053266.7507        STORAGE CHANGE =         -40.7309

 PERCENT DISCREPANCY IS DIFFERENCE BETWEEN IN-OUT MINUS CHANGE IN STORAGE
 DIVIDED BY THE AVERAGE OF IN AND OUT TIMES 100

 PERCENT DISCREPANCY =          -0.00     PERCENT DISCREPANCY =          -0.01






1
  VOLUMETRIC BUDGET FOR ENTIRE MODEL AT END OF TIME STEP   15, STRESS PERIOD   5
  ------------------------------------------------------------------------------

     CUMULATIVE VOLUMES      L**3       RATES FOR THIS TIME STEP      L**3/T
     ------------------                 ------------------------

           IN:                                      IN:
           ---                                      ---
             STORAGE     =     1005878.5625               STORAGE     =           0.0000
       CONSTANT HEAD     =           0.0000         CONSTANT HEAD     =           0.0000
               WELLS     =           0.0000                 WELLS     =           0.0000
     HEAD DEP BOUNDS     =     2598220.7500       HEAD DEP BOUNDS     =           0.2754
      STREAM LEAKAGE     =   104402776.0000        STREAM LEAKAGE     =          12.6380
        UZF RECHARGE     =   247915536.0000          UZF RECHARGE     =          26.2361
               GW ET     =           0.0000                 GW ET     =           0.0000
     SURFACE LEAKAGE     =           0.0000       SURFACE LEAKAGE     =           0.0000
    SUPPLEMENTARY WELLS  =           0.0000      SUPPLEMENTARY WELLS  =           0.0000

                TOTAL IN =   355922400.0000                  TOTAL IN =          39.1495

          OUT:                                     OUT:
          ----                                     ----
             STORAGE     =   249764928.0000               STORAGE     =          27.8908
       CONSTANT HEAD     =           0.0000         CONSTANT HEAD     =           0.0000
               WELLS     =           0.0000                 WELLS     =           0.0000
     HEAD DEP BOUNDS     =     2699016.0000       HEAD DEP BOUNDS     =           0.2976
      STREAM LEAKAGE     =   103230112.0000        STREAM LEAKAGE     =          10.9566
        UZF RECHARGE     =           0.0000          UZF RECHARGE     =           0.0000
               GW ET     =      151091.6250                 GW ET     =       2.5427E-08
     SURFACE LEAKAGE     =           0.0000       SURFACE LEAKAGE     =           0.0000
    SUPPLEMENTARY WELLS  =       31277.0352      SUPPLEMENTARY WELLS  =           0.0000

               TOTAL OUT =   355876416.0000                 TOTAL OUT =          39.1450

                IN - OUT =       45984.0000                  IN - OUT =       4.5280E-03

     PERCENT DISCREPANCY =           0.01         PERCENT DISCREPANCY =           0.01






         TIME SUMMARY AT END OF TIME STEP   15 IN STRESS PERIOD    5
                    SECONDS     MINUTES      HOURS       DAYS        YEARS
                    -----------------------------------------------------------
   TIME STEP LENGTH  87600.      1460.0      24.333      1.0139     2.77588E-03
 STRESS PERIOD TIME 1.31400E+06  21900.      365.00      15.208     4.16381E-02
         TOTAL TIME 9.28440E+06 1.54740E+05  2579.0      107.46     0.29420    
1
 
 SOLVING FOR HEAD 
                                                   Max.-Head-Change                         Max.-Flux-Residual
  Residual-Control   Outer-Iter.   Inner-Iter.     Column Row Layer    Maximum-Head-Change  Column Row Layer    Maximum-Flux-Residual          L2-NORM 
          0                 1           2             2    2     1       0.1054886621E-01       2    2    1         0.5497515239E+00      0.1879838844E+01
          0                 2           2             1    2     1       0.2343419235E-02       2    2    1         0.9555067605E-01      0.4681056040E+00
          0                 3           2             1    2     1       0.1052742611E-02       1    2    1         0.2735442809E-01      0.1734667063E+00
          0                 4           2             1    2     1       0.4727207397E-03       1    2    1         0.1228656855E-01      0.7494971821E-01
          0                 5           2             1    2     1       0.2122333263E-03       1    2    1         0.5516787362E-02      0.3336475622E-01
          0                 6           1             1    2     1       0.9527829854E-04       1    2    1         0.2476764843E-02      0.1492325691E-01
          0                 7           1             1    2     1       0.4277237291E-04       1    2    1         0.1111888290E-02      0.6679929711E-02
          0                 8           1             1    2     1       0.1920120112E-04       1    2    1         0.4991475484E-03      0.2990549399E-02
          0                 9           1             1    2     1       0.8619692437E-05       1    2    1         0.2240749908E-03      0.1338939529E-02

    ------------------------------------------------
       NWT REQUIRED            9 OUTER ITERATIONS 
       AND A TOTAL OF         14 INNER ITERATIONS.
    ------------------------------------------------

 NO OUTPUT CONTROL FOR STRESS PERIOD    5   TIME STEP   16
 
 SOLVING FOR HEAD 
                                                   Max.-Head-Change                         Max.-Flux-Residual
  Residual-Control   Outer-Iter.   Inner-Iter.     Column Row Layer    Maximum-Head-Change  Column Row Layer    Maximum-Flux-Residual          L2-NORM 
          0                 1           2             2    2     1       0.1050453499E-01       2    2    1         0.5474189766E+00      0.1866024856E+01
          0                 2           2             1    2     1       0.2345189382E-02       2    2    1         0.9515135413E-01      0.4671823947E+00
          0                 3           2             1    2     1       0.1053534851E-02       1    2    1         0.2737506543E-01      0.1732534588E+00
          0                 4           2             1    2     1       0.4730758001E-03       1    2    1         0.1229580960E-01      0.7486011711E-01
          0                 5           2             1    2     1       0.2123925395E-03       1    2    1         0.5520929766E-02      0.3332480892E-01
          0                 6           1             1    2     1       0.9534970549E-04       1    2    1         0.2478622475E-02      0.1490533832E-01
          0                 7           1             1    2     1       0.4280440113E-04       1    2    1         0.1112721461E-02      0.6671886464E-02
          0                 8           1             1    2     1       0.1921556800E-04       1    2    1         0.4995212619E-03      0.2986940015E-02
          0                 9           1             1    2     1       0.8626136548E-05       1    2    1         0.2242426142E-03      0.1337319815E-02

    ------------------------------------------------
       NWT REQUIRED            9 OUTER ITERATIONS 
       AND A TOTAL OF         14 INNER ITERATIONS.
    ------------------------------------------------

 NO OUTPUT CONTROL FOR STRESS PERIOD    5   TIME STEP   17
 
 SOLVING FOR HEAD 
                                                   Max.-Head-Change                         Max.-Flux-Residual
  Residual-Control   Outer-Iter.   Inner-Iter.     Column Row Layer    Maximum-Head-Change  Column Row Layer    Maximum-Flux-Residual          L2-NORM 
          0                 1           2             2    2     1       0.1046094550E-01       2    2    1         0.5451255561E+00      0.1858707961E+01
          0                 2           2             1    2     1       0.2346948880E-02       2    2    1         0.9475870343E-01      0.4664262880E+00
          0                 3           2             1    2     1       0.1054322335E-02       1    2    1         0.2739557875E-01      0.1730351075E+00
          0                 4           2             1    2     1       0.4734287305E-03       1    2    1         0.1230499520E-01      0.7476832207E-01
          0                 5           2             1    2     1       0.2125507962E-03       1    2    1         0.5525047304E-02      0.3328399796E-01
          0                 6           1             1    2     1       0.9542068350E-04       1    2    1         0.2480468948E-02      0.1488704801E-01
          0                 7           1             1    2     1       0.4283623702E-04       1    2    1         0.1113549622E-02      0.6663680866E-02
          0                 8           1             1    2     1       0.1922984734E-04       1    2    1         0.4998927196E-03      0.2983258109E-02
          0                 9           1             1    2     1       0.8632541892E-05       1    2    1         0.2244092353E-03      0.1335668088E-02

    ------------------------------------------------
       NWT REQUIRED            9 OUTER ITERATIONS 
       AND A TOTAL OF         14 INNER ITERATIONS.
    ------------------------------------------------

 NO OUTPUT CONTROL FOR STRESS PERIOD    5   TIME STEP   18
 
 SOLVING FOR HEAD 
                                                   Max.-Head-Change                         Max.-Flux-Residual
  Residual-Control   Outer-Iter.   Inner-Iter.     Column Row Layer    Maximum-Head-Change  Column Row Layer    Maximum-Flux-Residual          L2-NORM 
          0                 1           2             2    2     1       0.1041816960E-01       2    2    1         0.5428749943E+00      0.1853388805E+01
          0                 2           2             1    2     1       0.2348657271E-02       2    2    1         0.9437337619E-01      0.4656337776E+00
          0                 3           2             1    2     1       0.1055086903E-02       1    2    1         0.2741549592E-01      0.1728010799E+00
          0                 4           2             1    2     1       0.4737713764E-03       1    2    1         0.1231391342E-01      0.7467410468E-01
          0                 5           2             1    2     1       0.2127044367E-03       1    2    1         0.5529044839E-02      0.3324254921E-01
          0                 6           1             1    2     1       0.9548958860E-04       1    2    1         0.2482261547E-02      0.1486851420E-01
          0                 7           1             1    2     1       0.4286714224E-04       1    2    1         0.1114353596E-02      0.6655371806E-02
          0                 8           1             1    2     1       0.1924370925E-04       1    2    1         0.5002533223E-03      0.2979531998E-02
          0                 9           1             1    2     1       0.8638759653E-05       1    2    1         0.2245709799E-03      0.1333997286E-02

    ------------------------------------------------
       NWT REQUIRED            9 OUTER ITERATIONS 
       AND A TOTAL OF         14 INNER ITERATIONS.
    ------------------------------------------------

 NO OUTPUT CONTROL FOR STRESS PERIOD    5   TIME STEP   19
 
 SOLVING FOR HEAD 
                                                   Max.-Head-Change                         Max.-Flux-Residual
  Residual-Control   Outer-Iter.   Inner-Iter.     Column Row Layer    Maximum-Head-Change  Column Row Layer    Maximum-Flux-Residual          L2-NORM 
          0                 1           2             2    2     1       0.1037610108E-01       2    2    1         0.5406617875E+00      0.1848371742E+01
          0                 2           2             1    2     1       0.2350355977E-02       2    2    1         0.9399440718E-01      0.4649180535E+00
          0                 3           2             1    2     1       0.1055847149E-02       1    2    1         0.2743530033E-01      0.1725759333E+00
          0                 4           2             1    2     1       0.4741120859E-03       1    2    1         0.1232278124E-01      0.7457978239E-01
          0                 5           2             1    2     1       0.2128572078E-03       1    2    1         0.5533019780E-02      0.3320064781E-01
          0                 6           1             1    2     1       0.9555810376E-04       1    2    1         0.2484044015E-02      0.1484974702E-01
          0                 7           1             1    2     1       0.4289787263E-04       1    2    1         0.1115153025E-02      0.6646957777E-02
          0                 8           1             1    2     1       0.1925749262E-04       1    2    1         0.5006118797E-03      0.2975759350E-02
          0                 9           1             1    2     1       0.8644941898E-05       1    2    1         0.2247318026E-03      0.1332305572E-02

    ------------------------------------------------
       NWT REQUIRED            9 OUTER ITERATIONS 
       AND A TOTAL OF         14 INNER ITERATIONS.
    ------------------------------------------------

 NO OUTPUT CONTROL FOR STRESS PERIOD    5   TIME STEP   20
 
 SOLVING FOR HEAD 
                                                   Max.-Head-Change                         Max.-Flux-Residual
  Residual-Control   Outer-Iter.   Inner-Iter.     Column Row Layer    Maximum-Head-Change  Column Row Layer    Maximum-Flux-Residual          L2-NORM 
          0                 1           2             2    2     1       0.1033481238E-01       2    2    1         0.5384896568E+00      0.1844106341E+01
          0                 2           2             1    2     1       0.2352024964E-02       2    2    1         0.9362245831E-01      0.4642643176E+00
          0                 3           2             1    2     1       0.1056594081E-02       1    2    1         0.2745475820E-01      0.1723541211E+00
          0                 4           2             1    2     1       0.4744468218E-03       1    2    1         0.1233149371E-01      0.7448540656E-01
          0                 5           2             1    2     1       0.2130072976E-03       1    2    1         0.5536925015E-02      0.3315865354E-01
          0                 6           1             1    2     1       0.9562541515E-04       1    2    1         0.2485795188E-02      0.1483093864E-01
          0                 7           1             1    2     1       0.4292806228E-04       1    2    1         0.1115938403E-02      0.6638526294E-02
          0                 8           1             1    2     1       0.1927103338E-04       1    2    1         0.5009641303E-03      0.2971979821E-02
          0                 9           1             1    2     1       0.8651014844E-05       1    2    1         0.2248897926E-03      0.1330611520E-02

    ------------------------------------------------
       NWT REQUIRED            9 OUTER ITERATIONS 
       AND A TOTAL OF         14 INNER ITERATIONS.
    ------------------------------------------------

 NO OUTPUT CONTROL FOR STRESS PERIOD    5   TIME STEP   21
 
 SOLVING FOR HEAD 
                                                   Max.-Head-Change                         Max.-Flux-Residual
  Residual-Control   Outer-Iter.   Inner-Iter.     Column Row Layer    Maximum-Head-Change  Column Row Layer    Maximum-Flux-Residual          L2-NORM 
          0                 1           2             2    2     1       0.1029428660E-01       2    2    1         0.5363577533E+00      0.1840337509E+01
          0                 2           2             1    2     1       0.2353644235E-02       2    2    1         0.9325737278E-01      0.4636461301E+00
          0                 3           2             1    2     1       0.1057318717E-02       1    2    1         0.2747363613E-01      0.1721339739E+00
          0                 4           2             1    2     1       0.4747715527E-03       1    2    1         0.1233994605E-01      0.7439085979E-01
          0                 5           2             1    2     1       0.2131528963E-03       1    2    1         0.5540713495E-02      0.3311653855E-01
          0                 6           1             1    2     1       0.9569070964E-04       1    2    1         0.2487493940E-02      0.1481206983E-01
          0                 7           1             1    2     1       0.4295734629E-04       1    2    1         0.1116700243E-02      0.6630069423E-02
          0                 8           1             1    2     1       0.1928416746E-04       1    2    1         0.5013058163E-03      0.2968189433E-02
          0                 9           1             1    2     1       0.8656905959E-05       1    2    1         0.2250430439E-03      0.1328912598E-02

    ------------------------------------------------
       NWT REQUIRED            9 OUTER ITERATIONS 
       AND A TOTAL OF         14 INNER ITERATIONS.
    ------------------------------------------------

 NO OUTPUT CONTROL FOR STRESS PERIOD    5   TIME STEP   22
 
 SOLVING FOR HEAD 
                                                   Max.-Head-Change                         Max.-Flux-Residual
  Residual-Control   Outer-Iter.   Inner-Iter.     Column Row Layer    Maximum-Head-Change  Column Row Layer    Maximum-Flux-Residual          L2-NORM 
          0                 1           2             2    2     1       0.1025441888E-01       2    2    1         0.5342605780E+00      0.1836756029E+01
          0                 2           2             2    3     1       0.2355683451E-02       2    2    1         0.9289820463E-01      0.4630353105E+00
          0                 3           2             1    2     1       0.1058039652E-02       1    2    1         0.2749241744E-01      0.1719139161E+00
          0                 4           2             1    2     1       0.4750946249E-03       1    2    1         0.1234835522E-01      0.7429610707E-01
          0                 5           2             1    2     1       0.2132977501E-03       1    2    1         0.5544482618E-02      0.3307430567E-01
          0                 6           1             1    2     1       0.9575567023E-04       1    2    1         0.2489184013E-02      0.1479316066E-01
          0                 7           1             1    2     1       0.4298648072E-04       1    2    1         0.1117458190E-02      0.6621594974E-02
          0                 8           1             1    2     1       0.1929723401E-04       1    2    1         0.5016457484E-03      0.2964391800E-02
          0                 9           1             1    2     1       0.8662766311E-05       1    2    1         0.2251955050E-03      0.1327212343E-02

    ------------------------------------------------
       NWT REQUIRED            9 OUTER ITERATIONS 
       AND A TOTAL OF         14 INNER ITERATIONS.
    ------------------------------------------------

 NO OUTPUT CONTROL FOR STRESS PERIOD    5   TIME STEP   23
 
 SOLVING FOR HEAD 
                                                   Max.-Head-Change                         Max.-Flux-Residual
  Residual-Control   Outer-Iter.   Inner-Iter.     Column Row Layer    Maximum-Head-Change  Column Row Layer    Maximum-Flux-Residual          L2-NORM 
          0                 1           2             2    2     1       0.1021519440E-01       2    2    1         0.5321973109E+00      0.1833365496E+01
          0                 2           2             2    3     1       0.2360951011E-02       2    2    1         0.9254482428E-01      0.4624334576E+00
          0                 3           2             1    2     1       0.1058747854E-02       2    3    1         0.2753711843E-01      0.1716936125E+00
          0                 4           2             1    2     1       0.4754119843E-03       1    2    1         0.1235661584E-01      0.7420096559E-01
          0                 5           2             1    2     1       0.2134400400E-03       1    2    1         0.5548185086E-02      0.3303189234E-01
          0                 6           1             1    2     1       0.9581948006E-04       1    2    1         0.2490844163E-02      0.1477416682E-01
          0                 7           1             1    2     1       0.4301509793E-04       1    2    1         0.1118202694E-02      0.6613084465E-02
          0                 8           1             1    2     1       0.1931006896E-04       1    2    1         0.5019796496E-03      0.2960578196E-02
          0                 9           1             1    2     1       0.8668522617E-05       1    2    1         0.2253452561E-03      0.1325501828E-02

    ------------------------------------------------
       NWT REQUIRED            9 OUTER ITERATIONS 
       AND A TOTAL OF         14 INNER ITERATIONS.
    ------------------------------------------------

 NO OUTPUT CONTROL FOR STRESS PERIOD    5   TIME STEP   24
 
 SOLVING FOR HEAD 
                                                   Max.-Head-Change                         Max.-Flux-Residual
  Residual-Control   Outer-Iter.   Inner-Iter.     Column Row Layer    Maximum-Head-Change  Column Row Layer    Maximum-Flux-Residual          L2-NORM 
          0                 1           2             2    2     1       0.1017677497E-01       2    2    1         0.5301764744E+00      0.1830122272E+01
          0                 2           2             2    3     1       0.2365934981E-02       2    2    1         0.9219868823E-01      0.4618380228E+00
          0                 3           2             1    2     1       0.1059443548E-02       2    3    1         0.2759502999E-01      0.1714734015E+00
          0                 4           2             1    2     1       0.4757237322E-03       1    2    1         0.1236473054E-01      0.7410568757E-01
          0                 5           2             1    2     1       0.2135798118E-03       1    2    1         0.5551822087E-02      0.3298941709E-01
          0                 6           1             1    2     1       0.9588215889E-04       1    2    1         0.2492474922E-02      0.1475514802E-01
          0                 7           1             1    2     1       0.4304320766E-04       1    2    1         0.1118934008E-02      0.6604563416E-02
          0                 8           1             1    2     1       0.1932267581E-04       1    2    1         0.5023076254E-03      0.2956760065E-02
          0                 9           1             1    2     1       0.8674176627E-05       1    2    1         0.2254923451E-03      0.1323791777E-02

    ------------------------------------------------
       NWT REQUIRED            9 OUTER ITERATIONS 
       AND A TOTAL OF         14 INNER ITERATIONS.
    ------------------------------------------------

 NO OUTPUT CONTROL FOR STRESS PERIOD    5   TIME STEP   25
 
 SOLVING FOR HEAD 
                                                   Max.-Head-Change                         Max.-Flux-Residual
  Residual-Control   Outer-Iter.   Inner-Iter.     Column Row Layer    Maximum-Head-Change  Column Row Layer    Maximum-Flux-Residual          L2-NORM 
          0                 1           2             2    2     1       0.1013896748E-01       2    2    1         0.5281879129E+00      0.1826624209E+01
          0                 2           2             2    3     1       0.2370645308E-02       2    2    1         0.9185805671E-01      0.4612171015E+00
          0                 3           2             1    2     1       0.1060126907E-02       2    3    1         0.2764975809E-01      0.1712519353E+00
          0                 4           2             1    2     1       0.4760299464E-03       1    2    1         0.1237270133E-01      0.7401006237E-01
          0                 5           2             1    2     1       0.2137170988E-03       1    2    1         0.5555394493E-02      0.3294676833E-01
          0                 6           1             1    2     1       0.9594372172E-04       1    2    1         0.2494076682E-02      0.1473605175E-01
          0                 7           1             1    2     1       0.4307081666E-04       1    2    1         0.1119652304E-02      0.6596010421E-02
          0                 8           1             1    2     1       0.1933505755E-04       1    2    1         0.5026297538E-03      0.2952929297E-02
          0                 9           1             1    2     1       0.8679729342E-05       1    2    1         0.2256368134E-03      0.1322077923E-02

    ------------------------------------------------
       NWT REQUIRED            9 OUTER ITERATIONS 
       AND A TOTAL OF         14 INNER ITERATIONS.
    ------------------------------------------------

 NO OUTPUT CONTROL FOR STRESS PERIOD    5   TIME STEP   26
 
 SOLVING FOR HEAD 
                                                   Max.-Head-Change                         Max.-Flux-Residual
  Residual-Control   Outer-Iter.   Inner-Iter.     Column Row Layer    Maximum-Head-Change  Column Row Layer    Maximum-Flux-Residual          L2-NORM 
          0                 1           2             2    2     1       0.1010175857E-01       2    2    1         0.5262309012E+00      0.1823639496E+01
          0                 2           2             2    3     1       0.2375198245E-02       2    2    1         0.9152281163E-01      0.4606320690E+00
          0                 3           2             1    2     1       0.1060798097E-02       2    3    1         0.2770265539E-01      0.1710309487E+00
          0                 4           2             1    2     1       0.4763306997E-03       1    2    1         0.1238053013E-01      0.7391404569E-01
          0                 5           2             1    2     1       0.2138519354E-03       1    2    1         0.5558903193E-02      0.3290394353E-01
          0                 6           1             1    2     1       0.9600418481E-04       1    2    1         0.2495649843E-02      0.1471687952E-01
          0                 7           1             1    2     1       0.4309793095E-04       1    2    1         0.1120357757E-02      0.6587422276E-02
          0                 8           1             1    2     1       0.1934721745E-04       1    2    1         0.5029461250E-03      0.2949082079E-02
          0                 9           1             1    2     1       0.8685183264E-05       1    2    1         0.2257786995E-03      0.1320352630E-02

    ------------------------------------------------
       NWT REQUIRED            9 OUTER ITERATIONS 
       AND A TOTAL OF         14 INNER ITERATIONS.
    ------------------------------------------------

 NO OUTPUT CONTROL FOR STRESS PERIOD    5   TIME STEP   27
 
 SOLVING FOR HEAD 
                                                   Max.-Head-Change                         Max.-Flux-Residual
  Residual-Control   Outer-Iter.   Inner-Iter.     Column Row Layer    Maximum-Head-Change  Column Row Layer    Maximum-Flux-Residual          L2-NORM 
          0                 1           2             2    2     1       0.1006531119E-01       2    2    1         0.5243140221E+00      0.1820821098E+01
          0                 2           2             2    3     1       0.2379386981E-02       2    2    1         0.9119441964E-01      0.4600580728E+00
          0                 3           2             2    3     1       0.1061665800E-02       2    3    1         0.2775131479E-01      0.1708110345E+00
          0                 4           2             1    2     1       0.4766260951E-03       1    2    1         0.1238821959E-01      0.7381824390E-01
          0                 5           2             1    2     1       0.2139843662E-03       1    2    1         0.5562349366E-02      0.3286120236E-01
          0                 6           1             1    2     1       0.9606356818E-04       1    2    1         0.2497194943E-02      0.1469774597E-01
          0                 7           1             1    2     1       0.4312456127E-04       1    2    1         0.1121050612E-02      0.6578854129E-02
          0                 8           1             1    2     1       0.1935915975E-04       1    2    1         0.5032568304E-03      0.2945243339E-02
          0                 9           1             1    2     1       0.8690538892E-05       1    2    1         0.2259180360E-03      0.1318649648E-02

    ------------------------------------------------
       NWT REQUIRED            9 OUTER ITERATIONS 
       AND A TOTAL OF         14 INNER ITERATIONS.
    ------------------------------------------------

 NO OUTPUT CONTROL FOR STRESS PERIOD    5   TIME STEP   28
 
 SOLVING FOR HEAD 
                                                   Max.-Head-Change                         Max.-Flux-Residual
  Residual-Control   Outer-Iter.   Inner-Iter.     Column Row Layer    Maximum-Head-Change  Column Row Layer    Maximum-Flux-Residual          L2-NORM 
          0                 1           2             2    2     1       0.9482060190E-02       2    2    1         0.4937850020E+00      0.1784045908E+01
          0                 2           2             2    3     1       0.2380781700E-02       2    2    1         0.8592470725E-01      0.4556695437E+00
          0                 3           2             2    3     1       0.1062099180E-02       2    3    1         0.2776576612E-01      0.1702498601E+00
          0                 4           2             1    2     1       0.4767900764E-03       1    2    1         0.1239259055E-01      0.7368156725E-01
          0                 5           2             1    2     1       0.2140567741E-03       1    2    1         0.5564252174E-02      0.3280813289E-01
          0                 6           1             1    2     1       0.9609582725E-04       1    2    1         0.2498037885E-02      0.1467457217E-01
          0                 7           1             1    2     1       0.4313898318E-04       1    2    1         0.1121426635E-02      0.6568535420E-02
          0                 8           1             1    2     1       0.1936561662E-04       1    2    1         0.5034250298E-03      0.2940636322E-02
          0                 9           1             1    2     1       0.8693430675E-05       1    2    1         0.2259933480E-03      0.1316575011E-02

    ------------------------------------------------
       NWT REQUIRED            9 OUTER ITERATIONS 
       AND A TOTAL OF         14 INNER ITERATIONS.
    ------------------------------------------------

 NO OUTPUT CONTROL FOR STRESS PERIOD    5   TIME STEP   29
 
 SOLVING FOR HEAD 
                                                   Max.-Head-Change                         Max.-Flux-Residual
  Residual-Control   Outer-Iter.   Inner-Iter.     Column Row Layer    Maximum-Head-Change  Column Row Layer    Maximum-Flux-Residual          L2-NORM 
          0                 1           2             2   13     1      -0.1597777693E-01       4   13    1        -0.9058734799E+00      0.2240290796E+01
          0                 2           2             2    3     1       0.2361088934E-02       4   13    1         0.9023992270E-01      0.4569952424E+00
          0                 3           2             1    2     1       0.1060071231E-02       1    2    1         0.2755071263E-01      0.1683174946E+00
          0                 4           2             1    2     1       0.4759479127E-03       1    2    1         0.1237151506E-01      0.7329565487E-01
          0                 5           2             1    2     1       0.2136700459E-03       1    2    1         0.5554342553E-02      0.3268365221E-01
          0                 6           1             1    2     1       0.9592067499E-04       1    2    1         0.2493510455E-02      0.1462268064E-01
          0                 7           1             1    2     1       0.4306006889E-04       1    2    1         0.1119380056E-02      0.6545738728E-02
          0                 8           1             1    2     1       0.1933013312E-04       1    2    1         0.5025036207E-03      0.2930534109E-02
          0                 9           1             1    2     1       0.8677487847E-05       1    2    1         0.2255791533E-03      0.1312091502E-02

    ------------------------------------------------
       NWT REQUIRED            9 OUTER ITERATIONS 
       AND A TOTAL OF         14 INNER ITERATIONS.
    ------------------------------------------------

 NO OUTPUT CONTROL FOR STRESS PERIOD    5   TIME STEP   30



 STREAM LISTING     PERIOD      5   STEP       30

 LAYER ROW COL. STREAM  RCH.  FLOW INTO     FLOW TO   FLOW OUT OF   OVRLND.     DIRECT     STREAM       STREAM     STREAM     STREAM   STREAMBED  STREAMBED
                SEG.NO.  NO.  STRM. RCH.    AQUIFER    STRM. RCH.    RUNOFF     PRECIP       ET          HEAD       DEPTH      WIDTH   CONDCTNC.   GRADIENT

   1    1    1     1     1    2.8000E+01  2.5860E-01   2.7741E+01  0.000E+00  0.000E+00  0.000E+00  1.09427E+03  1.221E+00  1.361E+01  6.126E-02  1.407E+00
   1    2    2     1     2    2.7741E+01  4.0002E-01   2.7341E+01  0.000E+00  0.000E+00  0.000E+00  1.08928E+03  1.217E+00  1.355E+01  9.487E-02  1.406E+00
   1    3    3     1     3    2.7341E+01  3.4070E-01   2.7001E+01  0.000E+00  0.000E+00  0.000E+00  1.08363E+03  1.212E+00  1.348E+01  8.090E-02  1.404E+00
   1    3    4     1     4    2.7001E+01  3.1335E-01   2.6687E+01  0.000E+00  0.000E+00  0.000E+00  1.07861E+03  1.207E+00  1.342E+01  7.448E-02  1.402E+00
   1    4    5     2     1    2.4687E+01  3.2711E-01   2.4360E+01  0.000E+00  0.000E+00  0.000E+00  1.07313E+03  1.194E+00  1.200E+01  7.800E-02  1.398E+00
   1    5    6     2     2    2.4360E+01  2.5111E-01   2.4109E+01  0.000E+00  0.000E+00  0.000E+00  1.06769E+03  1.185E+00  1.200E+01  6.000E-02  1.395E+00
   1    6    6     2     3    2.4109E+01  2.5067E-01   2.3858E+01  0.000E+00  0.000E+00  0.000E+00  1.06297E+03  1.178E+00  1.200E+01  6.000E-02  1.393E+00
   1    7    6     2     4    2.3858E+01  2.5023E-01   2.3608E+01  0.000E+00  0.000E+00  0.000E+00  1.05825E+03  1.170E+00  1.200E+01  6.000E-02  1.390E+00
   1    8    6     2     5    2.3608E+01  2.4978E-01   2.3358E+01  0.000E+00  0.000E+00  0.000E+00  1.05352E+03  1.163E+00  1.200E+01  6.000E-02  1.388E+00
   1    3    5     3     1    2.0000E+00  2.8252E-01   1.7175E+00  0.000E+00  0.000E+00  0.000E+00  1.07555E+03  1.909E+00  9.636E+00  7.227E-02  1.955E+00
   1    3    6     3     2    1.7175E+00  2.4905E-01   1.4684E+00  0.000E+00  0.000E+00  0.000E+00  1.07264E+03  1.727E+00  8.909E+00  6.682E-02  1.864E+00
   1    3    7     3     3    1.4684E+00  1.9718E-01   1.2712E+00  0.000E+00  0.000E+00  0.000E+00  1.06987E+03  1.555E+00  8.218E+00  5.547E-02  1.777E+00
   1    4    8     3     4    1.2712E+00  2.2567E-01   1.0456E+00  0.000E+00  0.000E+00  0.000E+00  1.06682E+03  1.364E+00  7.455E+00  6.709E-02  1.682E+00
   1    5    8     3     5    1.0456E+00  1.5790E-01   8.8768E-01  0.000E+00  0.000E+00  0.000E+00  1.06362E+03  1.164E+00  6.655E+00  4.991E-02  1.582E+00
   1    6    8     3     6    8.8768E-01  5.5980E-02   8.3170E-01  0.000E+00  0.000E+00  0.000E+00  1.06158E+03  1.036E+00  6.145E+00  1.844E-02  1.518E+00
   1    5   10     4     1    1.0000E+01  9.0919E-02   9.9091E+00  0.000E+00  0.000E+00  0.000E+00  1.07836E+03  6.368E-01  1.000E+01  2.500E-02  1.212E+00
   1    5    9     4     2    9.9091E+00  1.8158E-01   9.7275E+00  0.000E+00  0.000E+00  0.000E+00  1.07154E+03  6.315E-01  1.000E+01  5.000E-02  1.211E+00
   1    6    8     4     3    9.7275E+00  1.2689E-01   9.6006E+00  0.000E+00  0.000E+00  0.000E+00  1.06381E+03  6.256E-01  1.000E+01  3.500E-02  1.209E+00
   1    6    8     5     1    1.0432E+01  2.2686E-01   1.0205E+01  0.000E+00  0.000E+00  0.000E+00  1.05868E+03  6.790E-01  1.542E+01  6.166E-02  1.226E+00
   1    7    7     5     2    1.0205E+01  2.7894E-01   9.9265E+00  0.000E+00  0.000E+00  0.000E+00  1.05417E+03  6.732E-01  1.519E+01  7.594E-02  1.224E+00
   1    8    7     5     3    9.9265E+00  1.9221E-01   9.7343E+00  0.000E+00  0.000E+00  0.000E+00  1.04992E+03  6.676E-01  1.497E+01  5.241E-02  1.223E+00
   1    8    6     5     4    9.7343E+00  1.3577E-01   9.5985E+00  0.000E+00  0.000E+00  0.000E+00  1.04691E+03  6.637E-01  1.482E+01  3.706E-02  1.221E+00
   1    9    6     6     1    3.2957E+01  2.6627E-01   3.2691E+01  0.000E+00  0.000E+00  0.000E+00  1.04417E+03  1.438E+00  1.200E+01  6.000E-02  1.479E+00
   1   10    7     6     2    3.2691E+01  2.6584E-01   3.2425E+01  0.000E+00  0.000E+00  0.000E+00  1.03961E+03  1.431E+00  1.200E+01  6.000E-02  1.477E+00
   1   11    7     6     3    3.2425E+01  2.6542E-01   3.2159E+01  0.000E+00  0.000E+00  0.000E+00  1.03506E+03  1.424E+00  1.200E+01  6.000E-02  1.475E+00
   1   12    7     6     4    3.2159E+01  2.6500E-01   3.1894E+01  0.000E+00  0.000E+00  0.000E+00  1.03051E+03  1.417E+00  1.200E+01  6.000E-02  1.472E+00
   1   13    7     6     5    3.1894E+01 -5.3041E-02   3.1947E+01  0.000E+00  0.000E+00  0.000E+00  1.02732E+03  1.414E+00  1.200E+01  2.400E-01 -7.367E-02
   1   14    9     7     1    1.5000E+02  1.1733E+00   1.4883E+02  0.000E+00  0.000E+00  0.000E+00  1.03987E+03  2.288E+00  5.530E+01  5.593E-01  6.992E-01
   1   13    8     7     2    1.4883E+02  1.6056E+00   1.4722E+02  0.000E+00  0.000E+00  0.000E+00  1.03478E+03  2.281E+00  5.526E+01  6.149E-01  8.704E-01
   1   13    7     7     3    1.4722E+02  1.2002E+00   1.4602E+02  0.000E+00  0.000E+00  0.000E+00  1.02969E+03  2.273E+00  5.523E+01  5.586E-01  7.162E-01
   1   13    6     8     1    1.7797E+02  6.9092E-01   1.7728E+02  0.000E+00  0.000E+00  0.000E+00  1.02488E+03  3.001E+00  4.352E+01  4.435E-01  5.193E-01
   1   13    5     8     2    1.7728E+02 -3.8482E-01   1.7766E+02  0.000E+00  0.000E+00  0.000E+00  1.01863E+03  3.000E+00  4.350E+01  4.433E+00 -2.894E-02
   1   13    4     8     3    1.7766E+02 -3.7208E+00   1.8138E+02  0.000E+00  0.000E+00  0.000E+00  1.01239E+03  3.013E+00  4.369E+01  4.452E+00 -2.786E-01
   1   13    3     8     4    1.8138E+02 -4.6663E+00   1.8605E+02  0.000E+00  0.000E+00  0.000E+00  1.00616E+03  3.039E+00  4.407E+01  4.491E+00 -3.463E-01
   1   13    2     8     5    1.8605E+02 -3.5261E+00   1.8958E+02  0.000E+00  0.000E+00  0.000E+00  9.99940E+02  3.065E+00  4.444E+01  4.528E+00 -2.596E-01
   1   13    1     8     6    1.8958E+02 -2.4593E+00   1.9203E+02  0.000E+00  0.000E+00  0.000E+00  9.94958E+02  3.083E+00  4.470E+01  2.733E+00 -2.999E-01
   1    6    8     9     1    0.0000E+00  0.0000E+00   0.0000E+00  0.000E+00  0.000E+00  0.000E+00  1.07850E+03  0.000E+00  4.000E+00  0.000E+00  1.000E+00





UNSATURATED ZONE PACKAGE VOLUMETRIC BUDGET FOR  TIME STEP    30 STRESS PERIOD    5
  ------------------------------------------------------------------------------



     CUMULATIVE VOLUMES      L**3       RATES FOR THIS TIME STEP      L**3/T
     ------------------                 ------------------------

           IN:                                      IN:
           ---                                      ---
        INFILTRATION =      183082.4255          INFILTRATION =       0.0000E+00

          OUT:                                     OUT:
          ----                                     ----
              UZF ET =    40086553.7699                UZF ET =          14.2500
        UZF RECHARGE =   281980019.4770          UZF RECHARGE =          25.1622

            IN - OUT =  -321883490.8214              IN - OUT =         -39.4122

          STORAGE:                                 STORAGE:
          --------                                 --------
      STORAGE CHANGE =  -321862689.8214        STORAGE CHANGE =         -39.4121

 PERCENT DISCREPANCY IS DIFFERENCE BETWEEN IN-OUT MINUS CHANGE IN STORAGE
 DIVIDED BY THE AVERAGE OF IN AND OUT TIMES 100

 PERCENT DISCREPANCY =          -0.00     PERCENT DISCREPANCY =          -0.00






1
  VOLUMETRIC BUDGET FOR ENTIRE MODEL AT END OF TIME STEP   30, STRESS PERIOD   5
  ------------------------------------------------------------------------------

     CUMULATIVE VOLUMES      L**3       RATES FOR THIS TIME STEP      L**3/T
     ------------------                 ------------------------

           IN:                                      IN:
           ---                                      ---
             STORAGE     =     1303391.7500               STORAGE     =           3.1859
       CONSTANT HEAD     =           0.0000         CONSTANT HEAD     =           0.0000
               WELLS     =           0.0000                 WELLS     =           0.0000
     HEAD DEP BOUNDS     =     2959552.5000       HEAD DEP BOUNDS     =           0.2747
      STREAM LEAKAGE     =   120764120.0000        STREAM LEAKAGE     =          10.7755
        UZF RECHARGE     =   281980032.0000          UZF RECHARGE     =          25.1622
               GW ET     =           0.0000                 GW ET     =           0.0000
     SURFACE LEAKAGE     =           0.0000       SURFACE LEAKAGE     =           0.0000
    SUPPLEMENTARY WELLS  =           0.0000      SUPPLEMENTARY WELLS  =           0.0000

                TOTAL IN =   407007104.0000                  TOTAL IN =          39.3983

          OUT:                                     OUT:
          ----                                     ----
             STORAGE     =   285132096.0000               STORAGE     =          24.0349
       CONSTANT HEAD     =           0.0000         CONSTANT HEAD     =           0.0000
               WELLS     =           0.0000                 WELLS     =           0.0000
     HEAD DEP BOUNDS     =     3091108.5000       HEAD DEP BOUNDS     =           0.2986
      STREAM LEAKAGE     =   118243888.0000        STREAM LEAKAGE     =          14.8104
        UZF RECHARGE     =           0.0000          UZF RECHARGE     =           0.0000
               GW ET     =      456885.8438                 GW ET     =           0.2500
     SURFACE LEAKAGE     =           0.0000       SURFACE LEAKAGE     =           0.0000
    SUPPLEMENTARY WELLS  =       31277.0352      SUPPLEMENTARY WELLS  =           0.0000

               TOTAL OUT =   406955232.0000                 TOTAL OUT =          39.3939

                IN - OUT =       51872.0000                  IN - OUT =       4.4098E-03

     PERCENT DISCREPANCY =           0.01         PERCENT DISCREPANCY =           0.01






         TIME SUMMARY AT END OF TIME STEP   30 IN STRESS PERIOD    5
                    SECONDS     MINUTES      HOURS       DAYS        YEARS
                    -----------------------------------------------------------
   TIME STEP LENGTH  87600.      1460.0      24.333      1.0139     2.77588E-03
 STRESS PERIOD TIME 2.62800E+06  43800.      730.00      30.417     8.32763E-02
         TOTAL TIME 1.05984E+07 1.76640E+05  2944.0      122.67     0.33584    
1
1
                            STRESS PERIOD NO.    6, LENGTH =   2628000.    
                            -----------------------------------------------

                              NUMBER OF TIME STEPS =    30

                               MULTIPLIER FOR DELT =     1.000

                            INITIAL TIME STEP SIZE =   87600.00    

 WELL NO.  LAYER   ROW   COL   STRESS RATE         
 --------------------------------------------------
      1      1      6      4       0.000    
      2      1      6      7       0.000    
      3      1      7      4       0.000    
      4      1      7      5       0.000    
      5      1      8      4       0.000    
      6      1      8      5       0.000    
      7      1      9      4       0.000    
      8      1      9      5       0.000    
      9      1     10      4       0.000    
     10      1     10      5       0.000    

     10 WELLS

 REUSING NON-PARAMETER GHB CELLS FROM LAST STRESS PERIOD

      2 GHB CELLS

 REUSING STREAM SEGMENT DATA FROM LAST STRESS PERIOD



            AREAL INFILTRATION RATE
 READING ON UNIT   19 WITH FORMAT: (10F4.0)            

            1           2           3           4           5           6           7           8           9          10
 ........................................................................................................................
   1    0.000       0.000       0.000       0.000       0.000       0.000       0.000       0.000       0.000       0.000    
   2    0.000       0.000       0.000       0.000       0.000       0.000       0.000       0.000       0.000       0.000    
   3    0.000       0.000       0.000       0.000       0.000       0.000       0.000       0.000       0.000       0.000    
   4    0.000       0.000       0.000       0.000       0.000       0.000       0.000       0.000       0.000       0.000    
   5    0.000       0.000       0.000       0.000       0.000       0.000       0.000       0.000       0.000       0.000    
   6    0.000       0.000       0.000       0.000       0.000       0.000       0.000       0.000       0.000       0.000    
   7    0.000       0.000       0.000       0.000       0.000       0.000       0.000       0.000       0.000       0.000    
   8    0.000       0.000       0.000       0.000       0.000       0.000       0.000       0.000       0.000       0.000    
   9    0.000       0.000       0.000       0.000       0.000       0.000       0.000       0.000       0.000       0.000    
  10    0.000       0.000       0.000       0.000       0.000       0.000       0.000       0.000       0.000       0.000    
  11    0.000       0.000       0.000       0.000       0.000       0.000       0.000       0.000       0.000       0.000    
  12    0.000       0.000       0.000       0.000       0.000       0.000       0.000       0.000       0.000       0.000    
  13    0.000       0.000       0.000       0.000       0.000       0.000       0.000       0.000       0.000       0.000    
  14    0.000       0.000       0.000       0.000       0.000       0.000       0.000       0.000       0.000       0.000    
  15    0.000       0.000       0.000       0.000       0.000       0.000       0.000       0.000       0.000       0.000    

                  ET RATE =  1.000000E-08

 USING ET EXTINCTION DEPTH FROM PREVIOUS STRESS PERIOD. CURRENT PERIOD IS:       6

 USING EXTINCTION WATER CONTENT FROM PREVIOUS STRESS PERIOD. CURRENT PERIOD IS:       6

 PROCESSING AGO STRESS PERIOD DATA

 READING AGO STRESS PERIOD DATA

 READING IRRIGATION STREAM

 READING IRRIGATION WELL

 READING SUPPLEMENTAL WEL

 END PROCESSING AGO STRESS PERIOD DATA OPTIONS
 
 SOLVING FOR HEAD 
                                                   Max.-Head-Change                         Max.-Flux-Residual
  Residual-Control   Outer-Iter.   Inner-Iter.     Column Row Layer    Maximum-Head-Change  Column Row Layer    Maximum-Flux-Residual          L2-NORM 
          0                 1           2             4   13     1      -0.1643598677E-01       4   13    1        -0.9440008450E+00      0.2243280724E+01
          0                 2           2             1    2     1       0.2357981938E-02       4   13    1         0.9322662802E-01      0.4562747395E+00
          0                 3           2             1    2     1       0.1058932340E-02       1    2    1         0.2752111181E-01      0.1677906489E+00
          0                 4           2             1    2     1       0.4754364279E-03       1    2    1         0.1235822385E-01      0.7307059462E-01
          0                 5           2             1    2     1       0.2134403051E-03       1    2    1         0.5548373081E-02      0.3258430118E-01
          0                 6           1             1    2     1       0.9581747892E-04       1    2    1         0.2490829133E-02      0.1457855238E-01
          0                 7           1             1    2     1       0.4301371381E-04       1    2    1         0.1118175633E-02      0.6526120424E-02
          0                 8           1             1    2     1       0.1930930987E-04       1    2    1         0.5019625982E-03      0.2921810047E-02
          0                 9           1             1    2     1       0.8668134695E-05       1    2    1         0.2253361367E-03      0.1308212228E-02

    ------------------------------------------------
       NWT REQUIRED            9 OUTER ITERATIONS 
       AND A TOTAL OF         14 INNER ITERATIONS.
    ------------------------------------------------

 NO OUTPUT CONTROL FOR STRESS PERIOD    6   TIME STEP    1
 
 SOLVING FOR HEAD 
                                                   Max.-Head-Change                         Max.-Flux-Residual
  Residual-Control   Outer-Iter.   Inner-Iter.     Column Row Layer    Maximum-Head-Change  Column Row Layer    Maximum-Flux-Residual          L2-NORM 
          0                 1           2             4   13     1      -0.1487570576E-01       4   13    1        -0.8542969809E+00      0.2144786040E+01
          0                 2           2             1    2     1       0.2355460589E-02       4   13    1         0.8435680343E-01      0.4507415166E+00
          0                 3           2             1    2     1       0.1057800346E-02       1    2    1         0.2749169039E-01      0.1672012742E+00
          0                 4           2             1    2     1       0.4749280382E-03       1    2    1         0.1234501311E-01      0.7285201001E-01
          0                 5           2             1    2     1       0.2132119543E-03       1    2    1         0.5542439742E-02      0.3248794855E-01
          0                 6           1             1    2     1       0.9571490688E-04       1    2    1         0.2488164038E-02      0.1453574130E-01
          0                 7           1             1    2     1       0.4296763910E-04       1    2    1         0.1116978504E-02      0.6507084235E-02
          0                 8           1             1    2     1       0.1928861368E-04       1    2    1         0.5014248566E-03      0.2913342903E-02
          0                 9           1             1    2     1       0.8658837817E-05       1    2    1         0.2250945819E-03      0.1304444190E-02

    ------------------------------------------------
       NWT REQUIRED            9 OUTER ITERATIONS 
       AND A TOTAL OF         14 INNER ITERATIONS.
    ------------------------------------------------

 NO OUTPUT CONTROL FOR STRESS PERIOD    6   TIME STEP    2
 
 SOLVING FOR HEAD 
                                                   Max.-Head-Change                         Max.-Flux-Residual
  Residual-Control   Outer-Iter.   Inner-Iter.     Column Row Layer    Maximum-Head-Change  Column Row Layer    Maximum-Flux-Residual          L2-NORM 
          0                 1           2             4   13     1      -0.1346432329E-01       4   13    1        -0.7731754547E+00      0.2057997009E+01
          0                 2           2             1    2     1       0.2352954371E-02       4   13    1         0.7633740990E-01      0.4458779109E+00
          0                 3           2             1    2     1       0.1056675133E-02       1    2    1         0.2746244541E-01      0.1666409335E+00
          0                 4           2             1    2     1       0.4744226916E-03       1    2    1         0.1233188148E-01      0.7264087693E-01
          0                 5           2             1    2     1       0.2129849695E-03       1    2    1         0.5536541903E-02      0.3239486493E-01
          0                 6           1             1    2     1       0.9561294811E-04       1    2    1         0.2485514886E-02      0.1449438073E-01
          0                 7           1             1    2     1       0.4292184002E-04       1    2    1         0.1115788536E-02      0.6488689801E-02
          0                 8           1             1    2     1       0.1926804105E-04       1    2    1         0.5008903277E-03      0.2905160496E-02
          0                 9           1             1    2     1       0.8649596464E-05       1    2    1         0.2248544688E-03      0.1300803942E-02

    ------------------------------------------------
       NWT REQUIRED            9 OUTER ITERATIONS 
       AND A TOTAL OF         14 INNER ITERATIONS.
    ------------------------------------------------

 NO OUTPUT CONTROL FOR STRESS PERIOD    6   TIME STEP    3
 
 SOLVING FOR HEAD 
                                                   Max.-Head-Change                         Max.-Flux-Residual
  Residual-Control   Outer-Iter.   Inner-Iter.     Column Row Layer    Maximum-Head-Change  Column Row Layer    Maximum-Flux-Residual          L2-NORM 
          0                 1           2             4   13     1      -0.1218707583E-01       4   13    1        -0.6997844910E+00      0.1981945308E+01
          0                 2           2             1    2     1       0.2350463048E-02       4   13    1         0.6908572657E-01      0.4416568039E+00
          0                 3           2             1    2     1       0.1055556594E-02       1    2    1         0.2743337412E-01      0.1661133384E+00
          0                 4           2             1    2     1       0.4739203411E-03       1    2    1         0.1231882774E-01      0.7243684544E-01
          0                 5           2             1    2     1       0.2127593298E-03       1    2    1         0.5530679029E-02      0.3230469422E-01
          0                 6           1             1    2     1       0.9551159412E-04       1    2    1         0.2482881436E-02      0.1445429511E-01
          0                 7           1             1    2     1       0.4287631206E-04       1    2    1         0.1114605615E-02      0.6470860761E-02
          0                 8           1             1    2     1       0.1924758997E-04       1    2    1         0.5003589659E-03      0.2897228113E-02
          0                 9           1             1    2     1       0.8640409886E-05       1    2    1         0.2246157853E-03      0.1297274163E-02

    ------------------------------------------------
       NWT REQUIRED            9 OUTER ITERATIONS 
       AND A TOTAL OF         14 INNER ITERATIONS.
    ------------------------------------------------

 NO OUTPUT CONTROL FOR STRESS PERIOD    6   TIME STEP    4
 
 SOLVING FOR HEAD 
                                                   Max.-Head-Change                         Max.-Flux-Residual
  Residual-Control   Outer-Iter.   Inner-Iter.     Column Row Layer    Maximum-Head-Change  Column Row Layer    Maximum-Flux-Residual          L2-NORM 
          0                 1           2             4   13     1      -0.1103103507E-01       4   13    1        -0.6333761681E+00      0.1939234087E+01
          0                 2           2             1    2     1       0.2347986378E-02       4   13    1         0.6252542695E-01      0.4389636687E+00
          0                 3           2             1    2     1       0.1054444623E-02       1    2    1         0.2740447372E-01      0.1656322895E+00
          0                 4           2             1    2     1       0.4734209363E-03       1    2    1         0.1230585060E-01      0.7223926586E-01
          0                 5           2             1    2     1       0.2125350137E-03       1    2    1         0.5524850547E-02      0.3221711283E-01
          0                 6           1             1    2     1       0.9541083388E-04       1    2    1         0.2480263421E-02      0.1441534988E-01
          0                 7           1             1    2     1       0.4283105096E-04       1    2    1         0.1113429626E-02      0.6453534759E-02
          0                 8           1             1    2     1       0.1922725869E-04       1    2    1         0.4998307185E-03      0.2889518776E-02
          0                 9           1             1    2     1       0.8631277331E-05       1    2    1         0.2243785005E-03      0.1293842678E-02

    ------------------------------------------------
       NWT REQUIRED            9 OUTER ITERATIONS 
       AND A TOTAL OF         14 INNER ITERATIONS.
    ------------------------------------------------

 OUTPUT CONTROL FOR STRESS PERIOD    6   TIME STEP    5
    PRINT BUDGET
    SAVE BUDGET
 UBUDSV SAVING "         STORAGE" ON UNIT102 AT TIME STEP     5, STRESS PERIOD    6
 UBUDSV SAVING "   CONSTANT HEAD" ON UNIT102 AT TIME STEP     5, STRESS PERIOD    6
 UBUDSV SAVING "FLOW RIGHT FACE " ON UNIT102 AT TIME STEP     5, STRESS PERIOD    6
 UBUDSV SAVING "FLOW FRONT FACE " ON UNIT102 AT TIME STEP     5, STRESS PERIOD    6

  HEAD DEP BOUNDS   PERIOD    6   STEP     5
 BOUNDARY      1   LAYER   1   ROW    13   COL     1   RATE   -0.297272    
 BOUNDARY      2   LAYER   1   ROW    14   COL     9   RATE    0.274558    



 STREAM LISTING     PERIOD      6   STEP        5

 LAYER ROW COL. STREAM  RCH.  FLOW INTO     FLOW TO   FLOW OUT OF   OVRLND.     DIRECT     STREAM       STREAM     STREAM     STREAM   STREAMBED  STREAMBED
                SEG.NO.  NO.  STRM. RCH.    AQUIFER    STRM. RCH.    RUNOFF     PRECIP       ET          HEAD       DEPTH      WIDTH   CONDCTNC.   GRADIENT

   1    1    1     1     1    2.8000E+01  2.5860E-01   2.7741E+01  0.000E+00  0.000E+00  0.000E+00  1.09427E+03  1.221E+00  1.361E+01  6.126E-02  1.407E+00
   1    2    2     1     2    2.7741E+01  4.0002E-01   2.7341E+01  0.000E+00  0.000E+00  0.000E+00  1.08928E+03  1.217E+00  1.355E+01  9.487E-02  1.406E+00
   1    3    3     1     3    2.7341E+01  3.4070E-01   2.7001E+01  0.000E+00  0.000E+00  0.000E+00  1.08363E+03  1.212E+00  1.348E+01  8.090E-02  1.404E+00
   1    3    4     1     4    2.7001E+01  3.1335E-01   2.6687E+01  0.000E+00  0.000E+00  0.000E+00  1.07861E+03  1.207E+00  1.342E+01  7.448E-02  1.402E+00
   1    4    5     2     1    2.4687E+01  3.2711E-01   2.4360E+01  0.000E+00  0.000E+00  0.000E+00  1.07313E+03  1.194E+00  1.200E+01  7.800E-02  1.398E+00
   1    5    6     2     2    2.4360E+01  2.5111E-01   2.4109E+01  0.000E+00  0.000E+00  0.000E+00  1.06769E+03  1.185E+00  1.200E+01  6.000E-02  1.395E+00
   1    6    6     2     3    2.4109E+01  2.5067E-01   2.3858E+01  0.000E+00  0.000E+00  0.000E+00  1.06297E+03  1.178E+00  1.200E+01  6.000E-02  1.393E+00
   1    7    6     2     4    2.3858E+01  2.5023E-01   2.3608E+01  0.000E+00  0.000E+00  0.000E+00  1.05825E+03  1.170E+00  1.200E+01  6.000E-02  1.390E+00
   1    8    6     2     5    2.3608E+01  2.4978E-01   2.3358E+01  0.000E+00  0.000E+00  0.000E+00  1.05352E+03  1.163E+00  1.200E+01  6.000E-02  1.388E+00
   1    3    5     3     1    2.0000E+00  2.8252E-01   1.7175E+00  0.000E+00  0.000E+00  0.000E+00  1.07555E+03  1.909E+00  9.636E+00  7.227E-02  1.955E+00
   1    3    6     3     2    1.7175E+00  2.4905E-01   1.4684E+00  0.000E+00  0.000E+00  0.000E+00  1.07264E+03  1.727E+00  8.909E+00  6.682E-02  1.864E+00
   1    3    7     3     3    1.4684E+00  1.9718E-01   1.2712E+00  0.000E+00  0.000E+00  0.000E+00  1.06987E+03  1.555E+00  8.218E+00  5.547E-02  1.777E+00
   1    4    8     3     4    1.2712E+00  2.2567E-01   1.0456E+00  0.000E+00  0.000E+00  0.000E+00  1.06682E+03  1.364E+00  7.455E+00  6.709E-02  1.682E+00
   1    5    8     3     5    1.0456E+00  1.5790E-01   8.8768E-01  0.000E+00  0.000E+00  0.000E+00  1.06362E+03  1.164E+00  6.655E+00  4.991E-02  1.582E+00
   1    6    8     3     6    8.8768E-01  5.5980E-02   8.3170E-01  0.000E+00  0.000E+00  0.000E+00  1.06158E+03  1.036E+00  6.145E+00  1.844E-02  1.518E+00
   1    5   10     4     1    1.0000E+01  9.0919E-02   9.9091E+00  0.000E+00  0.000E+00  0.000E+00  1.07836E+03  6.368E-01  1.000E+01  2.500E-02  1.212E+00
   1    5    9     4     2    9.9091E+00  1.8158E-01   9.7275E+00  0.000E+00  0.000E+00  0.000E+00  1.07154E+03  6.315E-01  1.000E+01  5.000E-02  1.211E+00
   1    6    8     4     3    9.7275E+00  1.2689E-01   9.6006E+00  0.000E+00  0.000E+00  0.000E+00  1.06381E+03  6.256E-01  1.000E+01  3.500E-02  1.209E+00
   1    6    8     5     1    1.0432E+01  2.2686E-01   1.0205E+01  0.000E+00  0.000E+00  0.000E+00  1.05868E+03  6.790E-01  1.542E+01  6.166E-02  1.226E+00
   1    7    7     5     2    1.0205E+01  2.7894E-01   9.9265E+00  0.000E+00  0.000E+00  0.000E+00  1.05417E+03  6.732E-01  1.519E+01  7.594E-02  1.224E+00
   1    8    7     5     3    9.9265E+00  1.9221E-01   9.7343E+00  0.000E+00  0.000E+00  0.000E+00  1.04992E+03  6.676E-01  1.497E+01  5.241E-02  1.223E+00
   1    8    6     5     4    9.7343E+00  1.3577E-01   9.5985E+00  0.000E+00  0.000E+00  0.000E+00  1.04691E+03  6.637E-01  1.482E+01  3.706E-02  1.221E+00
   1    9    6     6     1    3.2957E+01  2.6627E-01   3.2691E+01  0.000E+00  0.000E+00  0.000E+00  1.04417E+03  1.438E+00  1.200E+01  6.000E-02  1.479E+00
   1   10    7     6     2    3.2691E+01  2.6584E-01   3.2425E+01  0.000E+00  0.000E+00  0.000E+00  1.03961E+03  1.431E+00  1.200E+01  6.000E-02  1.477E+00
   1   11    7     6     3    3.2425E+01  2.6542E-01   3.2159E+01  0.000E+00  0.000E+00  0.000E+00  1.03506E+03  1.424E+00  1.200E+01  6.000E-02  1.475E+00
   1   12    7     6     4    3.2159E+01  2.6500E-01   3.1894E+01  0.000E+00  0.000E+00  0.000E+00  1.03051E+03  1.417E+00  1.200E+01  6.000E-02  1.472E+00
   1   13    7     6     5    3.1894E+01 -5.3745E-02   3.1948E+01  0.000E+00  0.000E+00  0.000E+00  1.02732E+03  1.414E+00  1.200E+01  2.400E-01 -7.465E-02
   1   14    9     7     1    1.5000E+02  1.1712E+00   1.4883E+02  0.000E+00  0.000E+00  0.000E+00  1.03987E+03  2.288E+00  5.530E+01  5.593E-01  6.980E-01
   1   13    8     7     2    1.4883E+02  1.6017E+00   1.4723E+02  0.000E+00  0.000E+00  0.000E+00  1.03478E+03  2.281E+00  5.526E+01  6.149E-01  8.683E-01
   1   13    7     7     3    1.4723E+02  1.1986E+00   1.4603E+02  0.000E+00  0.000E+00  0.000E+00  1.02969E+03  2.273E+00  5.523E+01  5.586E-01  7.152E-01
   1   13    6     8     1    1.7798E+02  6.9276E-01   1.7728E+02  0.000E+00  0.000E+00  0.000E+00  1.02488E+03  3.001E+00  4.352E+01  4.435E-01  5.207E-01
   1   13    5     8     2    1.7728E+02 -2.9806E-01   1.7758E+02  0.000E+00  0.000E+00  0.000E+00  1.01862E+03  3.000E+00  4.350E+01  4.433E+00 -2.241E-02
   1   13    4     8     3    1.7758E+02 -3.4501E+00   1.8103E+02  0.000E+00  0.000E+00  0.000E+00  1.01239E+03  3.012E+00  4.367E+01  4.450E+00 -2.584E-01
   1   13    3     8     4    1.8103E+02 -4.4074E+00   1.8544E+02  0.000E+00  0.000E+00  0.000E+00  1.00616E+03  3.036E+00  4.403E+01  4.487E+00 -3.275E-01
   1   13    2     8     5    1.8544E+02 -3.2745E+00   1.8871E+02  0.000E+00  0.000E+00  0.000E+00  9.99935E+02  3.060E+00  4.437E+01  4.522E+00 -2.414E-01
   1   13    1     8     6    1.8871E+02 -2.3752E+00   1.9109E+02  0.000E+00  0.000E+00  0.000E+00  9.94952E+02  3.077E+00  4.462E+01  2.728E+00 -2.902E-01
   1    6    8     9     1    0.0000E+00  0.0000E+00   0.0000E+00  0.000E+00  0.000E+00  0.000E+00  1.07850E+03  0.000E+00  4.000E+00  0.000E+00  1.000E+00



 UBDSV3 SAVING "     NETRECHARGE" ON UNIT 100 AT TIME STEP     5, STRESS PERIOD   6
 UBDSV3 SAVING "    NETDISCHARGE" ON UNIT 101 AT TIME STEP     5, STRESS PERIOD   6
 UBDSV3 SAVING "           GW ET" ON UNIT  61 AT TIME STEP     5, STRESS PERIOD   6
 UBDSV3 SAVING "    UZF RECHARGE" ON UNIT  61 AT TIME STEP     5, STRESS PERIOD   6
 UBDSV3 SAVING " SURFACE LEAKAGE" ON UNIT  61 AT TIME STEP     5, STRESS PERIOD   6
 UBDSV3 SAVING "       HORT+DUNN" ON UNIT  61 AT TIME STEP     5, STRESS PERIOD   6
 UBDSV3 SAVING "  STORAGE CHANGE" ON UNIT  61 AT TIME STEP     5, STRESS PERIOD   6


UNSATURATED ZONE PACKAGE VOLUMETRIC BUDGET FOR  TIME STEP     5 STRESS PERIOD    6
  ------------------------------------------------------------------------------



     CUMULATIVE VOLUMES      L**3       RATES FOR THIS TIME STEP      L**3/T
     ------------------                 ------------------------

           IN:                                      IN:
           ---                                      ---
        INFILTRATION =      183082.4255          INFILTRATION =       0.0000E+00

          OUT:                                     OUT:
          ----                                     ----
              UZF ET =    52559987.0111                UZF ET =          28.3908
        UZF RECHARGE =   292948099.1366          UZF RECHARGE =          24.9644

            IN - OUT =  -345325003.7222              IN - OUT =         -53.3553

          STORAGE:                                 STORAGE:
          --------                                 --------
      STORAGE CHANGE =  -345304174.6560        STORAGE CHANGE =         -53.3552

 PERCENT DISCREPANCY IS DIFFERENCE BETWEEN IN-OUT MINUS CHANGE IN STORAGE
 DIVIDED BY THE AVERAGE OF IN AND OUT TIMES 100

 PERCENT DISCREPANCY =          -0.00     PERCENT DISCREPANCY =          -0.00






1
  VOLUMETRIC BUDGET FOR ENTIRE MODEL AT END OF TIME STEP    5, STRESS PERIOD   6
  ------------------------------------------------------------------------------

     CUMULATIVE VOLUMES      L**3       RATES FOR THIS TIME STEP      L**3/T
     ------------------                 ------------------------

           IN:                                      IN:
           ---                                      ---
             STORAGE     =     2500282.7500               STORAGE     =           2.3949
       CONSTANT HEAD     =           0.0000         CONSTANT HEAD     =           0.0000
               WELLS     =           0.0000                 WELLS     =           0.0000
     HEAD DEP BOUNDS     =     3079832.2500       HEAD DEP BOUNDS     =           0.2746
      STREAM LEAKAGE     =   125482288.0000        STREAM LEAKAGE     =          10.7699
        UZF RECHARGE     =   292948096.0000          UZF RECHARGE     =          24.9644
               GW ET     =           0.0000                 GW ET     =           0.0000
     SURFACE LEAKAGE     =           0.0000       SURFACE LEAKAGE     =           0.0000
    SUPPLEMENTARY WELLS  =           0.0000      SUPPLEMENTARY WELLS  =           0.0000

                TOTAL IN =   424010496.0000                  TOTAL IN =          38.4038

          OUT:                                     OUT:
          ----                                     ----
             STORAGE     =   295550784.0000               STORAGE     =          23.6340
       CONSTANT HEAD     =           0.0000         CONSTANT HEAD     =           0.0000
               WELLS     =           0.0000                 WELLS     =           0.0000
     HEAD DEP BOUNDS     =     3221548.2500       HEAD DEP BOUNDS     =           0.2973
      STREAM LEAKAGE     =   124467728.0000        STREAM LEAKAGE     =          13.8590
        UZF RECHARGE     =           0.0000          UZF RECHARGE     =           0.0000
               GW ET     =      685454.1250                 GW ET     =           0.6092
     SURFACE LEAKAGE     =           0.0000       SURFACE LEAKAGE     =           0.0000
    SUPPLEMENTARY WELLS  =       31277.0352      SUPPLEMENTARY WELLS  =           0.0000

               TOTAL OUT =   423956768.0000                 TOTAL OUT =          38.3994

                IN - OUT =       53728.0000                  IN - OUT =       4.3449E-03

     PERCENT DISCREPANCY =           0.01         PERCENT DISCREPANCY =           0.01






         TIME SUMMARY AT END OF TIME STEP    5 IN STRESS PERIOD    6
                    SECONDS     MINUTES      HOURS       DAYS        YEARS
                    -----------------------------------------------------------
   TIME STEP LENGTH  87600.      1460.0      24.333      1.0139     2.77588E-03
 STRESS PERIOD TIME 4.38000E+05  7300.0      121.67      5.0694     1.38794E-02
         TOTAL TIME 1.10364E+07 1.83940E+05  3065.7      127.74     0.34972    
1
 
 SOLVING FOR HEAD 
                                                   Max.-Head-Change                         Max.-Flux-Residual
  Residual-Control   Outer-Iter.   Inner-Iter.     Column Row Layer    Maximum-Head-Change  Column Row Layer    Maximum-Flux-Residual          L2-NORM 
          0                 1           2             1   13     1      -0.1083610866E-01       1   13    1        -0.5908211303E+00      0.1918749920E+01
          0                 2           2             1    2     1       0.2345524207E-02       1    2    1         0.6093491359E-01      0.4372679468E+00
          0                 3           2             1    2     1       0.1053339153E-02       1    2    1         0.2737574243E-01      0.1651828981E+00
          0                 4           2             1    2     1       0.4729244509E-03       1    2    1         0.1229294934E-01      0.7204649753E-01
          0                 5           2             1    2     1       0.2123120080E-03       1    2    1         0.5519056120E-02      0.3213149976E-01
          0                 6           1             1    2     1       0.9531066191E-04       1    2    1         0.2477660703E-02      0.1437726291E-01
          0                 7           1             1    2     1       0.4278605474E-04       1    2    1         0.1112260513E-02      0.6436586961E-02
          0                 8           1             1    2     1       0.1920704622E-04       1    2    1         0.4993055527E-03      0.2881976213E-02
          0                 9           1             1    2     1       0.8622197800E-05       1    2    1         0.2241425952E-03      0.1290485297E-02

    ------------------------------------------------
       NWT REQUIRED            9 OUTER ITERATIONS 
       AND A TOTAL OF         14 INNER ITERATIONS.
    ------------------------------------------------

 NO OUTPUT CONTROL FOR STRESS PERIOD    6   TIME STEP    6
 
 SOLVING FOR HEAD 
                                                   Max.-Head-Change                         Max.-Flux-Residual
  Residual-Control   Outer-Iter.   Inner-Iter.     Column Row Layer    Maximum-Head-Change  Column Row Layer    Maximum-Flux-Residual          L2-NORM 
          0                 1           2             1   13     1      -0.1034197198E-01       1   13    1        -0.5639776838E+00      0.1864706326E+01
          0                 2           2             1    2     1       0.2343055697E-02       1    2    1         0.6087072616E-01      0.4342159084E+00
          0                 3           2             1    2     1       0.1052230823E-02       1    2    1         0.2734693701E-01      0.1647186955E+00
          0                 4           2             1    2     1       0.4724266794E-03       1    2    1         0.1228001467E-01      0.7185899125E-01
          0                 5           2             1    2     1       0.2120884244E-03       1    2    1         0.5513246678E-02      0.3204835604E-01
          0                 6           1             1    2     1       0.9521023132E-04       1    2    1         0.2475051245E-02      0.1434027458E-01
          0                 7           1             1    2     1       0.4274094146E-04       1    2    1         0.1111088367E-02      0.6420126758E-02
          0                 8           1             1    2     1       0.1918678172E-04       1    2    1         0.4987790351E-03      0.2874649939E-02
          0                 9           1             1    2     1       0.8613095008E-05       1    2    1         0.2239060879E-03      0.1287223870E-02

    ------------------------------------------------
       NWT REQUIRED            9 OUTER ITERATIONS 
       AND A TOTAL OF         14 INNER ITERATIONS.
    ------------------------------------------------

 NO OUTPUT CONTROL FOR STRESS PERIOD    6   TIME STEP    7
 
 SOLVING FOR HEAD 
                                                   Max.-Head-Change                         Max.-Flux-Residual
  Residual-Control   Outer-Iter.   Inner-Iter.     Column Row Layer    Maximum-Head-Change  Column Row Layer    Maximum-Flux-Residual          L2-NORM 
          0                 1           2             1   13     1      -0.9867568329E-02       1   13    1        -0.5381984924E+00      0.1817278054E+01
          0                 2           2             1    2     1       0.2340621869E-02       1    2    1         0.6080744112E-01      0.4314994171E+00
          0                 3           2             1    2     1       0.1051138055E-02       1    2    1         0.2731853624E-01      0.1642735004E+00
          0                 4           2             1    2     1       0.4719358940E-03       1    2    1         0.1226726161E-01      0.7167678054E-01
          0                 5           2             1    2     1       0.2118679786E-03       1    2    1         0.5507518779E-02      0.3196748039E-01
          0                 6           1             1    2     1       0.9511120910E-04       1    2    1         0.2472478397E-02      0.1430428513E-01
          0                 7           1             1    2     1       0.4269646096E-04       1    2    1         0.1109932666E-02      0.6404107563E-02
          0                 8           1             1    2     1       0.1916680135E-04       1    2    1         0.4982598986E-03      0.2867518410E-02
          0                 9           1             1    2     1       0.8604119774E-05       1    2    1         0.2236728889E-03      0.1284048510E-02

    ------------------------------------------------
       NWT REQUIRED            9 OUTER ITERATIONS 
       AND A TOTAL OF         14 INNER ITERATIONS.
    ------------------------------------------------

 NO OUTPUT CONTROL FOR STRESS PERIOD    6   TIME STEP    8
 
 SOLVING FOR HEAD 
                                                   Max.-Head-Change                         Max.-Flux-Residual
  Residual-Control   Outer-Iter.   Inner-Iter.     Column Row Layer    Maximum-Head-Change  Column Row Layer    Maximum-Flux-Residual          L2-NORM 
          0                 1           2             1   13     1      -0.9412377949E-02       1   13    1        -0.5134562853E+00      0.1775736017E+01
          0                 2           2             1    2     1       0.2338181271E-02       1    2    1         0.6074398151E-01      0.4290752253E+00
          0                 3           2             1    2     1       0.1050042236E-02       1    2    1         0.2729005634E-01      0.1638448612E+00
          0                 4           2             1    2     1       0.4714437370E-03       1    2    1         0.1225447291E-01      0.7149929679E-01
          0                 5           2             1    2     1       0.2116469159E-03       1    2    1         0.5501774853E-02      0.3188864927E-01
          0                 6           1             1    2     1       0.9501191077E-04       1    2    1         0.2469898358E-02      0.1426920097E-01
          0                 7           1             1    2     1       0.4265185615E-04       1    2    1         0.1108773729E-02      0.6388489406E-02
          0                 8           1             1    2     1       0.1914676496E-04       1    2    1         0.4977393083E-03      0.2860564992E-02
          0                 9           1             1    2     1       0.8595119278E-05       1    2    1         0.2234390414E-03      0.1280952179E-02

    ------------------------------------------------
       NWT REQUIRED            9 OUTER ITERATIONS 
       AND A TOTAL OF         14 INNER ITERATIONS.
    ------------------------------------------------

 NO OUTPUT CONTROL FOR STRESS PERIOD    6   TIME STEP    9
 
 SOLVING FOR HEAD 
                                                   Max.-Head-Change                         Max.-Flux-Residual
  Residual-Control   Outer-Iter.   Inner-Iter.     Column Row Layer    Maximum-Head-Change  Column Row Layer    Maximum-Flux-Residual          L2-NORM 
          0                 1           2             1   13     1      -0.8975807861E-02       1   13    1        -0.4897197006E+00      0.1741547169E+01
          0                 2           2             1    2     1       0.2335754396E-02       1    2    1         0.6068087935E-01      0.4269722674E+00
          0                 3           2             1    2     1       0.1048952571E-02       1    2    1         0.2726173652E-01      0.1634332021E+00
          0                 4           2             1    2     1       0.4709543427E-03       1    2    1         0.1224175602E-01      0.7132659302E-01
          0                 5           2             1    2     1       0.2114270936E-03       1    2    1         0.5496063173E-02      0.3181188946E-01
          0                 6           1             1    2     1       0.9491316918E-04       1    2    1         0.2467332807E-02      0.1423503115E-01
          0                 7           1             1    2     1       0.4260750246E-04       1    2    1         0.1107621310E-02      0.6373276405E-02
          0                 8           1             1    2     1       0.1912684111E-04       1    2    1         0.4972216407E-03      0.2853790449E-02
          0                 9           1             1    2     1       0.8586169804E-05       1    2    1         0.2232065051E-03      0.1277935204E-02

    ------------------------------------------------
       NWT REQUIRED            9 OUTER ITERATIONS 
       AND A TOTAL OF         14 INNER ITERATIONS.
    ------------------------------------------------

 OUTPUT CONTROL FOR STRESS PERIOD    6   TIME STEP   10
    PRINT BUDGET
    SAVE BUDGET
 UBUDSV SAVING "         STORAGE" ON UNIT102 AT TIME STEP    10, STRESS PERIOD    6
 UBUDSV SAVING "   CONSTANT HEAD" ON UNIT102 AT TIME STEP    10, STRESS PERIOD    6
 UBUDSV SAVING "FLOW RIGHT FACE " ON UNIT102 AT TIME STEP    10, STRESS PERIOD    6
 UBUDSV SAVING "FLOW FRONT FACE " ON UNIT102 AT TIME STEP    10, STRESS PERIOD    6

  HEAD DEP BOUNDS   PERIOD    6   STEP    10
 BOUNDARY      1   LAYER   1   ROW    13   COL     1   RATE   -0.295560    
 BOUNDARY      2   LAYER   1   ROW    14   COL     9   RATE    0.274434    



 STREAM LISTING     PERIOD      6   STEP       10

 LAYER ROW COL. STREAM  RCH.  FLOW INTO     FLOW TO   FLOW OUT OF   OVRLND.     DIRECT     STREAM       STREAM     STREAM     STREAM   STREAMBED  STREAMBED
                SEG.NO.  NO.  STRM. RCH.    AQUIFER    STRM. RCH.    RUNOFF     PRECIP       ET          HEAD       DEPTH      WIDTH   CONDCTNC.   GRADIENT

   1    1    1     1     1    2.8000E+01  2.5860E-01   2.7741E+01  0.000E+00  0.000E+00  0.000E+00  1.09427E+03  1.221E+00  1.361E+01  6.126E-02  1.407E+00
   1    2    2     1     2    2.7741E+01  4.0002E-01   2.7341E+01  0.000E+00  0.000E+00  0.000E+00  1.08928E+03  1.217E+00  1.355E+01  9.487E-02  1.406E+00
   1    3    3     1     3    2.7341E+01  3.4070E-01   2.7001E+01  0.000E+00  0.000E+00  0.000E+00  1.08363E+03  1.212E+00  1.348E+01  8.090E-02  1.404E+00
   1    3    4     1     4    2.7001E+01  3.1335E-01   2.6687E+01  0.000E+00  0.000E+00  0.000E+00  1.07861E+03  1.207E+00  1.342E+01  7.448E-02  1.402E+00
   1    4    5     2     1    2.4687E+01  3.2711E-01   2.4360E+01  0.000E+00  0.000E+00  0.000E+00  1.07313E+03  1.194E+00  1.200E+01  7.800E-02  1.398E+00
   1    5    6     2     2    2.4360E+01  2.5111E-01   2.4109E+01  0.000E+00  0.000E+00  0.000E+00  1.06769E+03  1.185E+00  1.200E+01  6.000E-02  1.395E+00
   1    6    6     2     3    2.4109E+01  2.5067E-01   2.3858E+01  0.000E+00  0.000E+00  0.000E+00  1.06297E+03  1.178E+00  1.200E+01  6.000E-02  1.393E+00
   1    7    6     2     4    2.3858E+01  2.5023E-01   2.3608E+01  0.000E+00  0.000E+00  0.000E+00  1.05825E+03  1.170E+00  1.200E+01  6.000E-02  1.390E+00
   1    8    6     2     5    2.3608E+01  2.4978E-01   2.3358E+01  0.000E+00  0.000E+00  0.000E+00  1.05352E+03  1.163E+00  1.200E+01  6.000E-02  1.388E+00
   1    3    5     3     1    2.0000E+00  2.8252E-01   1.7175E+00  0.000E+00  0.000E+00  0.000E+00  1.07555E+03  1.909E+00  9.636E+00  7.227E-02  1.955E+00
   1    3    6     3     2    1.7175E+00  2.4905E-01   1.4684E+00  0.000E+00  0.000E+00  0.000E+00  1.07264E+03  1.727E+00  8.909E+00  6.682E-02  1.864E+00
   1    3    7     3     3    1.4684E+00  1.9718E-01   1.2712E+00  0.000E+00  0.000E+00  0.000E+00  1.06987E+03  1.555E+00  8.218E+00  5.547E-02  1.777E+00
   1    4    8     3     4    1.2712E+00  2.2567E-01   1.0456E+00  0.000E+00  0.000E+00  0.000E+00  1.06682E+03  1.364E+00  7.455E+00  6.709E-02  1.682E+00
   1    5    8     3     5    1.0456E+00  1.5790E-01   8.8768E-01  0.000E+00  0.000E+00  0.000E+00  1.06362E+03  1.164E+00  6.655E+00  4.991E-02  1.582E+00
   1    6    8     3     6    8.8768E-01  5.5980E-02   8.3170E-01  0.000E+00  0.000E+00  0.000E+00  1.06158E+03  1.036E+00  6.145E+00  1.844E-02  1.518E+00
   1    5   10     4     1    1.0000E+01  9.0919E-02   9.9091E+00  0.000E+00  0.000E+00  0.000E+00  1.07836E+03  6.368E-01  1.000E+01  2.500E-02  1.212E+00
   1    5    9     4     2    9.9091E+00  1.8158E-01   9.7275E+00  0.000E+00  0.000E+00  0.000E+00  1.07154E+03  6.315E-01  1.000E+01  5.000E-02  1.211E+00
   1    6    8     4     3    9.7275E+00  1.2689E-01   9.6006E+00  0.000E+00  0.000E+00  0.000E+00  1.06381E+03  6.256E-01  1.000E+01  3.500E-02  1.209E+00
   1    6    8     5     1    1.0432E+01  2.2686E-01   1.0205E+01  0.000E+00  0.000E+00  0.000E+00  1.05868E+03  6.790E-01  1.542E+01  6.166E-02  1.226E+00
   1    7    7     5     2    1.0205E+01  2.7894E-01   9.9265E+00  0.000E+00  0.000E+00  0.000E+00  1.05417E+03  6.732E-01  1.519E+01  7.594E-02  1.224E+00
   1    8    7     5     3    9.9265E+00  1.9221E-01   9.7343E+00  0.000E+00  0.000E+00  0.000E+00  1.04992E+03  6.676E-01  1.497E+01  5.241E-02  1.223E+00
   1    8    6     5     4    9.7343E+00  1.3577E-01   9.5985E+00  0.000E+00  0.000E+00  0.000E+00  1.04691E+03  6.637E-01  1.482E+01  3.706E-02  1.221E+00
   1    9    6     6     1    3.2957E+01  2.6627E-01   3.2691E+01  0.000E+00  0.000E+00  0.000E+00  1.04417E+03  1.438E+00  1.200E+01  6.000E-02  1.479E+00
   1   10    7     6     2    3.2691E+01  2.6584E-01   3.2425E+01  0.000E+00  0.000E+00  0.000E+00  1.03961E+03  1.431E+00  1.200E+01  6.000E-02  1.477E+00
   1   11    7     6     3    3.2425E+01  2.6542E-01   3.2159E+01  0.000E+00  0.000E+00  0.000E+00  1.03506E+03  1.424E+00  1.200E+01  6.000E-02  1.475E+00
   1   12    7     6     4    3.2159E+01  2.6500E-01   3.1894E+01  0.000E+00  0.000E+00  0.000E+00  1.03051E+03  1.417E+00  1.200E+01  6.000E-02  1.472E+00
   1   13    7     6     5    3.1894E+01 -5.4355E-02   3.1949E+01  0.000E+00  0.000E+00  0.000E+00  1.02732E+03  1.414E+00  1.200E+01  2.400E-01 -7.549E-02
   1   14    9     7     1    1.5000E+02  1.1694E+00   1.4883E+02  0.000E+00  0.000E+00  0.000E+00  1.03987E+03  2.288E+00  5.530E+01  5.593E-01  6.969E-01
   1   13    8     7     2    1.4883E+02  1.5982E+00   1.4723E+02  0.000E+00  0.000E+00  0.000E+00  1.03478E+03  2.281E+00  5.526E+01  6.149E-01  8.665E-01
   1   13    7     7     3    1.4723E+02  1.1972E+00   1.4604E+02  0.000E+00  0.000E+00  0.000E+00  1.02969E+03  2.273E+00  5.523E+01  5.586E-01  7.144E-01
   1   13    6     8     1    1.7798E+02  6.9412E-01   1.7729E+02  0.000E+00  0.000E+00  0.000E+00  1.02488E+03  3.001E+00  4.352E+01  4.435E-01  5.217E-01
   1   13    5     8     2    1.7729E+02 -2.4130E-01   1.7753E+02  0.000E+00  0.000E+00  0.000E+00  1.01862E+03  3.000E+00  4.350E+01  4.433E+00 -1.815E-02
   1   13    4     8     3    1.7753E+02 -3.2858E+00   1.8082E+02  0.000E+00  0.000E+00  0.000E+00  1.01239E+03  3.011E+00  4.366E+01  4.449E+00 -2.462E-01
   1   13    3     8     4    1.8082E+02 -4.2409E+00   1.8506E+02  0.000E+00  0.000E+00  0.000E+00  1.00616E+03  3.035E+00  4.400E+01  4.484E+00 -3.153E-01
   1   13    2     8     5    1.8506E+02 -3.1028E+00   1.8816E+02  0.000E+00  0.000E+00  0.000E+00  9.99932E+02  3.057E+00  4.433E+01  4.517E+00 -2.290E-01
   1   13    1     8     6    1.8816E+02 -2.2597E+00   1.9042E+02  0.000E+00  0.000E+00  0.000E+00  9.94949E+02  3.074E+00  4.457E+01  2.725E+00 -2.764E-01
   1    6    8     9     1    0.0000E+00  0.0000E+00   0.0000E+00  0.000E+00  0.000E+00  0.000E+00  1.07850E+03  0.000E+00  4.000E+00  0.000E+00  1.000E+00



 UBDSV3 SAVING "     NETRECHARGE" ON UNIT 100 AT TIME STEP    10, STRESS PERIOD   6
 UBDSV3 SAVING "    NETDISCHARGE" ON UNIT 101 AT TIME STEP    10, STRESS PERIOD   6
 UBDSV3 SAVING "           GW ET" ON UNIT  61 AT TIME STEP    10, STRESS PERIOD   6
 UBDSV3 SAVING "    UZF RECHARGE" ON UNIT  61 AT TIME STEP    10, STRESS PERIOD   6
 UBDSV3 SAVING " SURFACE LEAKAGE" ON UNIT  61 AT TIME STEP    10, STRESS PERIOD   6
 UBDSV3 SAVING "       HORT+DUNN" ON UNIT  61 AT TIME STEP    10, STRESS PERIOD   6
 UBDSV3 SAVING "  STORAGE CHANGE" ON UNIT  61 AT TIME STEP    10, STRESS PERIOD   6


UNSATURATED ZONE PACKAGE VOLUMETRIC BUDGET FOR  TIME STEP    10 STRESS PERIOD    6
  ------------------------------------------------------------------------------



     CUMULATIVE VOLUMES      L**3       RATES FOR THIS TIME STEP      L**3/T
     ------------------                 ------------------------

           IN:                                      IN:
           ---                                      ---
        INFILTRATION =      183082.4255          INFILTRATION =       0.0000E+00

          OUT:                                     OUT:
          ----                                     ----
              UZF ET =    64931150.3997                UZF ET =          28.2233
        UZF RECHARGE =   303842106.6900          UZF RECHARGE =          24.8145

            IN - OUT =  -368590174.6643              IN - OUT =         -53.0378

          STORAGE:                                 STORAGE:
          --------                                 --------
      STORAGE CHANGE =  -368569322.1966        STORAGE CHANGE =         -53.0378

 PERCENT DISCREPANCY IS DIFFERENCE BETWEEN IN-OUT MINUS CHANGE IN STORAGE
 DIVIDED BY THE AVERAGE OF IN AND OUT TIMES 100

 PERCENT DISCREPANCY =          -0.00     PERCENT DISCREPANCY =          -0.00






1
  VOLUMETRIC BUDGET FOR ENTIRE MODEL AT END OF TIME STEP   10, STRESS PERIOD   6
  ------------------------------------------------------------------------------

     CUMULATIVE VOLUMES      L**3       RATES FOR THIS TIME STEP      L**3/T
     ------------------                 ------------------------

           IN:                                      IN:
           ---                                      ---
             STORAGE     =     3386783.5000               STORAGE     =           1.7417
       CONSTANT HEAD     =           0.0000         CONSTANT HEAD     =           0.0000
               WELLS     =           0.0000                 WELLS     =           0.0000
     HEAD DEP BOUNDS     =     3200055.5000       HEAD DEP BOUNDS     =           0.2744
      STREAM LEAKAGE     =   130198096.0000        STREAM LEAKAGE     =          10.7646
        UZF RECHARGE     =   303842112.0000          UZF RECHARGE     =          24.8145
               GW ET     =           0.0000                 GW ET     =           0.0000
     SURFACE LEAKAGE     =           0.0000       SURFACE LEAKAGE     =           0.0000
    SUPPLEMENTARY WELLS  =           0.0000      SUPPLEMENTARY WELLS  =           0.0000

                TOTAL IN =   440627040.0000                  TOTAL IN =          37.5952

          OUT:                                     OUT:
          ----                                     ----
             STORAGE     =   305820992.0000               STORAGE     =          23.3337
       CONSTANT HEAD     =           0.0000         CONSTANT HEAD     =           0.0000
               WELLS     =           0.0000                 WELLS     =           0.0000
     HEAD DEP BOUNDS     =     3351289.2500       HEAD DEP BOUNDS     =           0.2956
      STREAM LEAKAGE     =   130351592.0000        STREAM LEAKAGE     =          13.1850
        UZF RECHARGE     =           0.0000          UZF RECHARGE     =           0.0000
               GW ET     =     1016290.8750                 GW ET     =           0.7767
     SURFACE LEAKAGE     =           0.0000       SURFACE LEAKAGE     =           0.0000
    SUPPLEMENTARY WELLS  =       31277.0352      SUPPLEMENTARY WELLS  =           0.0000

               TOTAL OUT =   440571424.0000                 TOTAL OUT =          37.5909

                IN - OUT =       55616.0000                  IN - OUT =       4.2801E-03

     PERCENT DISCREPANCY =           0.01         PERCENT DISCREPANCY =           0.01






         TIME SUMMARY AT END OF TIME STEP   10 IN STRESS PERIOD    6
                    SECONDS     MINUTES      HOURS       DAYS        YEARS
                    -----------------------------------------------------------
   TIME STEP LENGTH  87600.      1460.0      24.333      1.0139     2.77588E-03
 STRESS PERIOD TIME 8.76000E+05  14600.      243.33      10.139     2.77588E-02
         TOTAL TIME 1.14744E+07 1.91240E+05  3187.3      132.81     0.36360    
1
 
 SOLVING FOR HEAD 
                                                   Max.-Head-Change                         Max.-Flux-Residual
  Residual-Control   Outer-Iter.   Inner-Iter.     Column Row Layer    Maximum-Head-Change  Column Row Layer    Maximum-Flux-Residual          L2-NORM 
          0                 1           2             1   13     1      -0.8557623774E-02       1   13    1        -0.4669766476E+00      0.1742079669E+01
          0                 2           2             1    2     1       0.2333361602E-02       1    2    1         0.6061866417E-01      0.4261382559E+00
          0                 3           2             1    2     1       0.1047878197E-02       1    2    1         0.2723381428E-01      0.1630466696E+00
          0                 4           2             1    2     1       0.4704718115E-03       1    2    1         0.1222921755E-01      0.7115437844E-01
          0                 5           2             1    2     1       0.2112103541E-03       1    2    1         0.5490431595E-02      0.3173523383E-01
          0                 6           1             1    2     1       0.9481581120E-04       1    2    1         0.2464803205E-02      0.1420089992E-01
          0                 7           1             1    2     1       0.4256376955E-04       1    2    1         0.1106485029E-02      0.6358076853E-02
          0                 8           1             1    2     1       0.1910719639E-04       1    2    1         0.4967112257E-03      0.2847021347E-02
          0                 9           1             1    2     1       0.8577345136E-05       1    2    1         0.2229772269E-03      0.1274920439E-02

    ------------------------------------------------
       NWT REQUIRED            9 OUTER ITERATIONS 
       AND A TOTAL OF         14 INNER ITERATIONS.
    ------------------------------------------------

 NO OUTPUT CONTROL FOR STRESS PERIOD    6   TIME STEP   11
 
 SOLVING FOR HEAD 
                                                   Max.-Head-Change                         Max.-Flux-Residual
  Residual-Control   Outer-Iter.   Inner-Iter.     Column Row Layer    Maximum-Head-Change  Column Row Layer    Maximum-Flux-Residual          L2-NORM 
          0                 1           2             1   13     1      -0.8159985577E-02       1   13    1        -0.4453445170E+00      0.1708495264E+01
          0                 2           2             1    2     1       0.2330961476E-02       1    2    1         0.6055625938E-01      0.4241185457E+00
          0                 3           2             1    2     1       0.1046800521E-02       1    2    1         0.2720580640E-01      0.1626474741E+00
          0                 4           2             1    2     1       0.4699877984E-03       1    2    1         0.1221664056E-01      0.7098653544E-01
          0                 5           2             1    2     1       0.2109929481E-03       1    2    1         0.5484782706E-02      0.3166059704E-01
          0                 6           1             1    2     1       0.9471815485E-04       1    2    1         0.2462265845E-02      0.1416766343E-01
          0                 7           1             1    2     1       0.4251990282E-04       1    2    1         0.1105345268E-02      0.6343275169E-02
          0                 8           1             1    2     1       0.1908749139E-04       1    2    1         0.4961992469E-03      0.2840428348E-02
          0                 9           1             1    2     1       0.8568493706E-05       1    2    1         0.2227472454E-03      0.1271982696E-02

    ------------------------------------------------
       NWT REQUIRED            9 OUTER ITERATIONS 
       AND A TOTAL OF         14 INNER ITERATIONS.
    ------------------------------------------------

 NO OUTPUT CONTROL FOR STRESS PERIOD    6   TIME STEP   12
 
 SOLVING FOR HEAD 
                                                   Max.-Head-Change                         Max.-Flux-Residual
  Residual-Control   Outer-Iter.   Inner-Iter.     Column Row Layer    Maximum-Head-Change  Column Row Layer    Maximum-Flux-Residual          L2-NORM 
          0                 1           2             1   13     1      -0.7778774720E-02       1   13    1        -0.4246011589E+00      0.1679272790E+01
          0                 2           2             1    2     1       0.2328574518E-02       1    2    1         0.6049419764E-01      0.4222995480E+00
          0                 3           2             1    2     1       0.1045728751E-02       1    2    1         0.2717795212E-01      0.1622616315E+00
          0                 4           2             1    2     1       0.4695064356E-03       1    2    1         0.1220413247E-01      0.7082287997E-01
          0                 5           2             1    2     1       0.2107767328E-03       1    2    1         0.5479164758E-02      0.3158778503E-01
          0                 6           1             1    2     1       0.9462103298E-04       1    2    1         0.2459742376E-02      0.1413523477E-01
          0                 7           1             1    2     1       0.4247627595E-04       1    2    1         0.1104211743E-02      0.6328830254E-02
          0                 8           1             1    2     1       0.1906789394E-04       1    2    1         0.4956900704E-03      0.2833992855E-02
          0                 9           1             1    2     1       0.8559691048E-05       1    2    1         0.2225185301E-03      0.1269117151E-02

    ------------------------------------------------
       NWT REQUIRED            9 OUTER ITERATIONS 
       AND A TOTAL OF         14 INNER ITERATIONS.
    ------------------------------------------------

 NO OUTPUT CONTROL FOR STRESS PERIOD    6   TIME STEP   13
 
 SOLVING FOR HEAD 
                                                   Max.-Head-Change                         Max.-Flux-Residual
  Residual-Control   Outer-Iter.   Inner-Iter.     Column Row Layer    Maximum-Head-Change  Column Row Layer    Maximum-Flux-Residual          L2-NORM 
          0                 1           2             1   13     1      -0.7413469994E-02       1   13    1        -0.4047188627E+00      0.1653809179E+01
          0                 2           2             1    2     1       0.2326200498E-02       1    2    1         0.6043247341E-01      0.4206500838E+00
          0                 3           2             1    2     1       0.1044662778E-02       1    2    1         0.2715024869E-01      0.1618871058E+00
          0                 4           2             1    2     1       0.4690276741E-03       1    2    1         0.1219169201E-01      0.7066284108E-01
          0                 5           2             1    2     1       0.2105616851E-03       1    2    1         0.5473577158E-02      0.3151653698E-01
          0                 6           1             1    2     1       0.9452443534E-04       1    2    1         0.2457232532E-02      0.1410349720E-01
          0                 7           1             1    2     1       0.4243288419E-04       1    2    1         0.1103084339E-02      0.6314691912E-02
          0                 8           1             1    2     1       0.1904840329E-04       1    2    1         0.4951836499E-03      0.2827693898E-02
          0                 9           1             1    2     1       0.8550935161E-05       1    2    1         0.2222910375E-03      0.1266308625E-02

    ------------------------------------------------
       NWT REQUIRED            9 OUTER ITERATIONS 
       AND A TOTAL OF         14 INNER ITERATIONS.
    ------------------------------------------------

 NO OUTPUT CONTROL FOR STRESS PERIOD    6   TIME STEP   14
 
 SOLVING FOR HEAD 
                                                   Max.-Head-Change                         Max.-Flux-Residual
  Residual-Control   Outer-Iter.   Inner-Iter.     Column Row Layer    Maximum-Head-Change  Column Row Layer    Maximum-Flux-Residual          L2-NORM 
          0                 1           2             1   13     1      -0.7063535756E-02       1   13    1        -0.3856690132E+00      0.1631544642E+01
          0                 2           2             1    2     1       0.2323839227E-02       1    2    1         0.6037108162E-01      0.4191472151E+00
          0                 3           2             1    2     1       0.1043602519E-02       1    2    1         0.2712269396E-01      0.1615239746E+00
          0                 4           2             1    2     1       0.4685514774E-03       1    2    1         0.1217931823E-01      0.7050652244E-01
          0                 5           2             1    2     1       0.2103477894E-03       1    2    1         0.5468019495E-02      0.3144690805E-01
          0                 6           1             1    2     1       0.9442835568E-04       1    2    1         0.2454736134E-02      0.1407247187E-01
          0                 7           1             1    2     1       0.4238972553E-04       1    2    1         0.1101962966E-02      0.6300866997E-02
          0                 8           1             1    2     1       0.1902901568E-04       1    2    1         0.4946799237E-03      0.2821532563E-02
          0                 9           1             1    2     1       0.8542226795E-05       1    2    1         0.2220647684E-03      0.1263562502E-02

    ------------------------------------------------
       NWT REQUIRED            9 OUTER ITERATIONS 
       AND A TOTAL OF         14 INNER ITERATIONS.
    ------------------------------------------------

 OUTPUT CONTROL FOR STRESS PERIOD    6   TIME STEP   15
    PRINT BUDGET
    PRINT HEAD FOR ALL LAYERS
    SAVE HEAD FOR ALL LAYERS
    SAVE BUDGET
 UBUDSV SAVING "         STORAGE" ON UNIT102 AT TIME STEP    15, STRESS PERIOD    6
 UBUDSV SAVING "   CONSTANT HEAD" ON UNIT102 AT TIME STEP    15, STRESS PERIOD    6
 UBUDSV SAVING "FLOW RIGHT FACE " ON UNIT102 AT TIME STEP    15, STRESS PERIOD    6
 UBUDSV SAVING "FLOW FRONT FACE " ON UNIT102 AT TIME STEP    15, STRESS PERIOD    6

  HEAD DEP BOUNDS   PERIOD    6   STEP    15
 BOUNDARY      1   LAYER   1   ROW    13   COL     1   RATE   -0.294211    
 BOUNDARY      2   LAYER   1   ROW    14   COL     9   RATE    0.274321    



 STREAM LISTING     PERIOD      6   STEP       15

 LAYER ROW COL. STREAM  RCH.  FLOW INTO     FLOW TO   FLOW OUT OF   OVRLND.     DIRECT     STREAM       STREAM     STREAM     STREAM   STREAMBED  STREAMBED
                SEG.NO.  NO.  STRM. RCH.    AQUIFER    STRM. RCH.    RUNOFF     PRECIP       ET          HEAD       DEPTH      WIDTH   CONDCTNC.   GRADIENT

   1    1    1     1     1    2.8000E+01  2.5860E-01   2.7741E+01  0.000E+00  0.000E+00  0.000E+00  1.09427E+03  1.221E+00  1.361E+01  6.126E-02  1.407E+00
   1    2    2     1     2    2.7741E+01  4.0002E-01   2.7341E+01  0.000E+00  0.000E+00  0.000E+00  1.08928E+03  1.217E+00  1.355E+01  9.487E-02  1.406E+00
   1    3    3     1     3    2.7341E+01  3.4070E-01   2.7001E+01  0.000E+00  0.000E+00  0.000E+00  1.08363E+03  1.212E+00  1.348E+01  8.090E-02  1.404E+00
   1    3    4     1     4    2.7001E+01  3.1335E-01   2.6687E+01  0.000E+00  0.000E+00  0.000E+00  1.07861E+03  1.207E+00  1.342E+01  7.448E-02  1.402E+00
   1    4    5     2     1    2.4687E+01  3.2711E-01   2.4360E+01  0.000E+00  0.000E+00  0.000E+00  1.07313E+03  1.194E+00  1.200E+01  7.800E-02  1.398E+00
   1    5    6     2     2    2.4360E+01  2.5111E-01   2.4109E+01  0.000E+00  0.000E+00  0.000E+00  1.06769E+03  1.185E+00  1.200E+01  6.000E-02  1.395E+00
   1    6    6     2     3    2.4109E+01  2.5067E-01   2.3858E+01  0.000E+00  0.000E+00  0.000E+00  1.06297E+03  1.178E+00  1.200E+01  6.000E-02  1.393E+00
   1    7    6     2     4    2.3858E+01  2.5023E-01   2.3608E+01  0.000E+00  0.000E+00  0.000E+00  1.05825E+03  1.170E+00  1.200E+01  6.000E-02  1.390E+00
   1    8    6     2     5    2.3608E+01  2.4978E-01   2.3358E+01  0.000E+00  0.000E+00  0.000E+00  1.05352E+03  1.163E+00  1.200E+01  6.000E-02  1.388E+00
   1    3    5     3     1    2.0000E+00  2.8252E-01   1.7175E+00  0.000E+00  0.000E+00  0.000E+00  1.07555E+03  1.909E+00  9.636E+00  7.227E-02  1.955E+00
   1    3    6     3     2    1.7175E+00  2.4905E-01   1.4684E+00  0.000E+00  0.000E+00  0.000E+00  1.07264E+03  1.727E+00  8.909E+00  6.682E-02  1.864E+00
   1    3    7     3     3    1.4684E+00  1.9718E-01   1.2712E+00  0.000E+00  0.000E+00  0.000E+00  1.06987E+03  1.555E+00  8.218E+00  5.547E-02  1.777E+00
   1    4    8     3     4    1.2712E+00  2.2567E-01   1.0456E+00  0.000E+00  0.000E+00  0.000E+00  1.06682E+03  1.364E+00  7.455E+00  6.709E-02  1.682E+00
   1    5    8     3     5    1.0456E+00  1.5790E-01   8.8768E-01  0.000E+00  0.000E+00  0.000E+00  1.06362E+03  1.164E+00  6.655E+00  4.991E-02  1.582E+00
   1    6    8     3     6    8.8768E-01  5.5980E-02   8.3170E-01  0.000E+00  0.000E+00  0.000E+00  1.06158E+03  1.036E+00  6.145E+00  1.844E-02  1.518E+00
   1    5   10     4     1    1.0000E+01  9.0919E-02   9.9091E+00  0.000E+00  0.000E+00  0.000E+00  1.07836E+03  6.368E-01  1.000E+01  2.500E-02  1.212E+00
   1    5    9     4     2    9.9091E+00  1.8158E-01   9.7275E+00  0.000E+00  0.000E+00  0.000E+00  1.07154E+03  6.315E-01  1.000E+01  5.000E-02  1.211E+00
   1    6    8     4     3    9.7275E+00  1.2689E-01   9.6006E+00  0.000E+00  0.000E+00  0.000E+00  1.06381E+03  6.256E-01  1.000E+01  3.500E-02  1.209E+00
   1    6    8     5     1    1.0432E+01  2.2686E-01   1.0205E+01  0.000E+00  0.000E+00  0.000E+00  1.05868E+03  6.790E-01  1.542E+01  6.166E-02  1.226E+00
   1    7    7     5     2    1.0205E+01  2.7894E-01   9.9265E+00  0.000E+00  0.000E+00  0.000E+00  1.05417E+03  6.732E-01  1.519E+01  7.594E-02  1.224E+00
   1    8    7     5     3    9.9265E+00  1.9221E-01   9.7343E+00  0.000E+00  0.000E+00  0.000E+00  1.04992E+03  6.676E-01  1.497E+01  5.241E-02  1.223E+00
   1    8    6     5     4    9.7343E+00  1.3577E-01   9.5985E+00  0.000E+00  0.000E+00  0.000E+00  1.04691E+03  6.637E-01  1.482E+01  3.706E-02  1.221E+00
   1    9    6     6     1    3.2957E+01  2.6627E-01   3.2691E+01  0.000E+00  0.000E+00  0.000E+00  1.04417E+03  1.438E+00  1.200E+01  6.000E-02  1.479E+00
   1   10    7     6     2    3.2691E+01  2.6584E-01   3.2425E+01  0.000E+00  0.000E+00  0.000E+00  1.03961E+03  1.431E+00  1.200E+01  6.000E-02  1.477E+00
   1   11    7     6     3    3.2425E+01  2.6542E-01   3.2159E+01  0.000E+00  0.000E+00  0.000E+00  1.03506E+03  1.424E+00  1.200E+01  6.000E-02  1.475E+00
   1   12    7     6     4    3.2159E+01  2.6500E-01   3.1894E+01  0.000E+00  0.000E+00  0.000E+00  1.03051E+03  1.417E+00  1.200E+01  6.000E-02  1.472E+00
   1   13    7     6     5    3.1894E+01 -5.4932E-02   3.1949E+01  0.000E+00  0.000E+00  0.000E+00  1.02732E+03  1.414E+00  1.200E+01  2.400E-01 -7.629E-02
   1   14    9     7     1    1.5000E+02  1.1678E+00   1.4883E+02  0.000E+00  0.000E+00  0.000E+00  1.03987E+03  2.288E+00  5.530E+01  5.593E-01  6.959E-01
   1   13    8     7     2    1.4883E+02  1.5952E+00   1.4724E+02  0.000E+00  0.000E+00  0.000E+00  1.03478E+03  2.281E+00  5.526E+01  6.149E-01  8.648E-01
   1   13    7     7     3    1.4724E+02  1.1959E+00   1.4604E+02  0.000E+00  0.000E+00  0.000E+00  1.02969E+03  2.273E+00  5.523E+01  5.586E-01  7.136E-01
   1   13    6     8     1    1.7799E+02  6.9521E-01   1.7730E+02  0.000E+00  0.000E+00  0.000E+00  1.02488E+03  3.001E+00  4.352E+01  4.435E-01  5.226E-01
   1   13    5     8     2    1.7730E+02 -1.3915E-01   1.7743E+02  0.000E+00  0.000E+00  0.000E+00  1.01862E+03  3.000E+00  4.349E+01  4.432E+00 -1.047E-02
   1   13    4     8     3    1.7743E+02 -3.1854E+00   1.8062E+02  0.000E+00  0.000E+00  0.000E+00  1.01239E+03  3.010E+00  4.365E+01  4.448E+00 -2.387E-01
   1   13    3     8     4    1.8062E+02 -4.1354E+00   1.8476E+02  0.000E+00  0.000E+00  0.000E+00  1.00616E+03  3.033E+00  4.398E+01  4.482E+00 -3.076E-01
   1   13    2     8     5    1.8476E+02 -2.9861E+00   1.8774E+02  0.000E+00  0.000E+00  0.000E+00  9.99930E+02  3.055E+00  4.430E+01  4.514E+00 -2.205E-01
   1   13    1     8     6    1.8774E+02 -2.1687E+00   1.8991E+02  0.000E+00  0.000E+00  0.000E+00  9.94946E+02  3.071E+00  4.453E+01  2.722E+00 -2.655E-01
   1    6    8     9     1    0.0000E+00  0.0000E+00   0.0000E+00  0.000E+00  0.000E+00  0.000E+00  1.07850E+03  0.000E+00  4.000E+00  0.000E+00  1.000E+00



 UBDSV3 SAVING "     NETRECHARGE" ON UNIT 100 AT TIME STEP    15, STRESS PERIOD   6
 UBDSV3 SAVING "    NETDISCHARGE" ON UNIT 101 AT TIME STEP    15, STRESS PERIOD   6
 UBDSV3 SAVING "           GW ET" ON UNIT  61 AT TIME STEP    15, STRESS PERIOD   6
 UBDSV3 SAVING "    UZF RECHARGE" ON UNIT  61 AT TIME STEP    15, STRESS PERIOD   6
 UBDSV3 SAVING " SURFACE LEAKAGE" ON UNIT  61 AT TIME STEP    15, STRESS PERIOD   6
 UBDSV3 SAVING "       HORT+DUNN" ON UNIT  61 AT TIME STEP    15, STRESS PERIOD   6
 UBDSV3 SAVING "  STORAGE CHANGE" ON UNIT  61 AT TIME STEP    15, STRESS PERIOD   6


UNSATURATED ZONE PACKAGE VOLUMETRIC BUDGET FOR  TIME STEP    15 STRESS PERIOD    6
  ------------------------------------------------------------------------------



     CUMULATIVE VOLUMES      L**3       RATES FOR THIS TIME STEP      L**3/T
     ------------------                 ------------------------

           IN:                                      IN:
           ---                                      ---
        INFILTRATION =      183082.4255          INFILTRATION =       0.0000E+00

          OUT:                                     OUT:
          ----                                     ----
              UZF ET =    77195150.3997                UZF ET =          28.0000
        UZF RECHARGE =   314673941.8208          UZF RECHARGE =          24.6734

            IN - OUT =  -391686009.7950              IN - OUT =         -52.6734

          STORAGE:                                 STORAGE:
          --------                                 --------
      STORAGE CHANGE =  -391665136.1257        STORAGE CHANGE =         -52.6734

 PERCENT DISCREPANCY IS DIFFERENCE BETWEEN IN-OUT MINUS CHANGE IN STORAGE
 DIVIDED BY THE AVERAGE OF IN AND OUT TIMES 100

 PERCENT DISCREPANCY =          -0.00     PERCENT DISCREPANCY =          -0.00






1
              HEAD IN LAYER   1 AT END OF TIME STEP    15 IN STRESS PERIOD    6
  -----------------------------------------------------------------------------

           1       2       3       4       5       6       7       8       9      10
 ...................................................................................
   1  1034.90 1033.44 6999.00 6999.00 6999.00 6999.00 6999.00 6999.00 6999.00 6999.00
   2  1034.24 1032.91 1031.92 6999.00 6999.00 1033.59 1033.80 1033.86 6999.00 6999.00
   3  6999.00 1032.00 1031.60 1031.30 1031.81 1032.55 1033.27 1033.43 6999.00 6999.00
   4  1031.27 1031.24 1030.91 1030.48 1030.53 1030.61 1031.41 1032.77 1032.72 6999.00
   5  1030.79 1030.41 1030.04 1029.67 1029.77 1030.06 1030.30 1030.90 1031.69 1032.23
   6  1030.17 1029.59 1029.16 1028.85 1028.97 1029.40 1029.76 1030.42 1031.42 1032.66
   7  1029.62 1028.54 1028.11 1027.85 1028.04 1028.54 1029.05 1029.71 1030.97 6999.00
   8  6999.00 1027.01 1026.78 1026.63 1026.86 1027.44 1027.93 1029.15 1030.14 6999.00
   9  6999.00 1024.75 1024.84 1024.98 1025.36 1026.07 1026.65 1027.91 1029.27 6999.00
  10  6999.00 1021.66 1022.19 1022.94 1023.72 1024.78 1025.76 1027.24 1029.06 1029.68
  11  6999.00 1016.85 1017.97 1020.32 1021.97 1023.75 1025.37 1027.50 1029.88 6999.00
  12  1002.98 1008.88 1012.74 1016.74 1020.08 1023.13 1025.66 1029.25 1032.43 6999.00
  13   995.74 1000.59 1007.08 1013.10 1018.66 1023.31 1027.55 1032.19 1035.12 6999.00
  14  6999.00 1006.91 1009.84 1014.48 1019.28 1023.70 1028.56 1033.86 1037.78 6999.00
  15  6999.00 6999.00 1013.68 1016.39 1019.86 1022.86 6999.00 6999.00 6999.00 6999.00

 HEAD WILL BE SAVED ON UNIT   62 AT END OF TIME STEP   15, STRESS PERIOD    6
1
  VOLUMETRIC BUDGET FOR ENTIRE MODEL AT END OF TIME STEP   15, STRESS PERIOD   6
  ------------------------------------------------------------------------------

     CUMULATIVE VOLUMES      L**3       RATES FOR THIS TIME STEP      L**3/T
     ------------------                 ------------------------

           IN:                                      IN:
           ---                                      ---
             STORAGE     =     4071094.0000               STORAGE     =           1.3270
       CONSTANT HEAD     =           0.0000         CONSTANT HEAD     =           0.0000
               WELLS     =           0.0000                 WELLS     =           0.0000
     HEAD DEP BOUNDS     =     3320227.5000       HEAD DEP BOUNDS     =           0.2743
      STREAM LEAKAGE     =   134911664.0000        STREAM LEAKAGE     =          10.7597
        UZF RECHARGE     =   314673952.0000          UZF RECHARGE     =          24.6734
               GW ET     =           0.0000                 GW ET     =           0.0000
     SURFACE LEAKAGE     =           0.0000       SURFACE LEAKAGE     =           0.0000
    SUPPLEMENTARY WELLS  =           0.0000      SUPPLEMENTARY WELLS  =           0.0000

                TOTAL IN =   456976960.0000                  TOTAL IN =          37.0344

          OUT:                                     OUT:
          ----                                     ----
             STORAGE     =   315969760.0000               STORAGE     =          23.0663
       CONSTANT HEAD     =           0.0000         CONSTANT HEAD     =           0.0000
               WELLS     =           0.0000                 WELLS     =           0.0000
     HEAD DEP BOUNDS     =     3480378.2500       HEAD DEP BOUNDS     =           0.2942
      STREAM LEAKAGE     =   135983760.0000        STREAM LEAKAGE     =          12.6697
        UZF RECHARGE     =           0.0000          UZF RECHARGE     =           0.0000
               GW ET     =     1454290.8750                 GW ET     =           1.0000
     SURFACE LEAKAGE     =           0.0000       SURFACE LEAKAGE     =           0.0000
    SUPPLEMENTARY WELLS  =       31277.0352      SUPPLEMENTARY WELLS  =           0.0000

               TOTAL OUT =   456919488.0000                 TOTAL OUT =          37.0302

                IN - OUT =       57472.0000                  IN - OUT =       4.2229E-03

     PERCENT DISCREPANCY =           0.01         PERCENT DISCREPANCY =           0.01






         TIME SUMMARY AT END OF TIME STEP   15 IN STRESS PERIOD    6
                    SECONDS     MINUTES      HOURS       DAYS        YEARS
                    -----------------------------------------------------------
   TIME STEP LENGTH  87600.      1460.0      24.333      1.0139     2.77588E-03
 STRESS PERIOD TIME 1.31400E+06  21900.      365.00      15.208     4.16381E-02
         TOTAL TIME 1.19124E+07 1.98540E+05  3309.0      137.88     0.37748    
1
 
 SOLVING FOR HEAD 
                                                   Max.-Head-Change                         Max.-Flux-Residual
  Residual-Control   Outer-Iter.   Inner-Iter.     Column Row Layer    Maximum-Head-Change  Column Row Layer    Maximum-Flux-Residual          L2-NORM 
          0                 1           2             1   13     1      -0.6728509578E-02       1   13    1        -0.3674269233E+00      0.1612191091E+01
          0                 2           2             1    2     1       0.2321490596E-02       1    2    1         0.6031001889E-01      0.4177769670E+00
          0                 3           2             1    2     1       0.1042547931E-02       1    2    1         0.2709528667E-01      0.1611707469E+00
          0                 4           2             1    2     1       0.4680778261E-03       1    2    1         0.1216701061E-01      0.7035338708E-01
          0                 5           2             1    2     1       0.2101350367E-03       1    2    1         0.5462491536E-02      0.3137866114E-01
          0                 6           1             1    2     1       0.9433278825E-04       1    2    1         0.2452253073E-02      0.1404206211E-01
          0                 7           1             1    2     1       0.4234679697E-04       1    2    1         0.1100847597E-02      0.6287317171E-02
          0                 8           1             1    2     1       0.1900973262E-04       1    2    1         0.4941789047E-03      0.2815494938E-02
          0                 9           1             1    2     1       0.8533564449E-05       1    2    1         0.2218397092E-03      0.1260872176E-02

    ------------------------------------------------
       NWT REQUIRED            9 OUTER ITERATIONS 
       AND A TOTAL OF         14 INNER ITERATIONS.
    ------------------------------------------------

 NO OUTPUT CONTROL FOR STRESS PERIOD    6   TIME STEP   16
 
 SOLVING FOR HEAD 
                                                   Max.-Head-Change                         Max.-Flux-Residual
  Residual-Control   Outer-Iter.   Inner-Iter.     Column Row Layer    Maximum-Head-Change  Column Row Layer    Maximum-Flux-Residual          L2-NORM 
          0                 1           2             1   13     1      -0.6407807075E-02       1   13    1        -0.3499612693E+00      0.1595358659E+01
          0                 2           2             1    2     1       0.2319133793E-02       1    2    1         0.6024874475E-01      0.4165185194E+00
          0                 3           2             1    2     1       0.1041489665E-02       1    2    1         0.2706778392E-01      0.1608266513E+00
          0                 4           2             1    2     1       0.4676025221E-03       1    2    1         0.1215466005E-01      0.7020345389E-01
          0                 5           2             1    2     1       0.2099215419E-03       1    2    1         0.5456944286E-02      0.3131182133E-01
          0                 6           1             1    2     1       0.9423688868E-04       1    2    1         0.2449761353E-02      0.1401227497E-01
          0                 7           1             1    2     1       0.4230371884E-04       1    2    1         0.1099728330E-02      0.6274042587E-02
          0                 8           1             1    2     1       0.1899038228E-04       1    2    1         0.4936761356E-03      0.2809578214E-02
          0                 9           1             1    2     1       0.8524872089E-05       1    2    1         0.2216138616E-03      0.1258234219E-02

    ------------------------------------------------
       NWT REQUIRED            9 OUTER ITERATIONS 
       AND A TOTAL OF         14 INNER ITERATIONS.
    ------------------------------------------------

 NO OUTPUT CONTROL FOR STRESS PERIOD    6   TIME STEP   17
 
 SOLVING FOR HEAD 
                                                   Max.-Head-Change                         Max.-Flux-Residual
  Residual-Control   Outer-Iter.   Inner-Iter.     Column Row Layer    Maximum-Head-Change  Column Row Layer    Maximum-Flux-Residual          L2-NORM 
          0                 1           2             3    2     1       0.6299454539E-02       1   13    1        -0.3332472698E+00      0.1580665090E+01
          0                 2           2             1    2     1       0.2316809915E-02       1    2    1         0.6018832751E-01      0.4153579453E+00
          0                 3           2             1    2     1       0.1040446170E-02       1    2    1         0.2704066529E-01      0.1604920433E+00
          0                 4           2             1    2     1       0.4671338493E-03       1    2    1         0.1214248186E-01      0.7005690248E-01
          0                 5           2             1    2     1       0.2097110247E-03       1    2    1         0.5451474426E-02      0.3124645784E-01
          0                 6           1             1    2     1       0.9414232544E-04       1    2    1         0.2447304381E-02      0.1398313982E-01
          0                 7           1             1    2     1       0.4226124173E-04       1    2    1         0.1098624672E-02      0.6261056594E-02
          0                 8           1             1    2     1       0.1897130080E-04       1    2    1         0.4931803667E-03      0.2803789509E-02
          0                 9           1             1    2     1       0.8516301284E-05       1    2    1         0.2213911686E-03      0.1255654031E-02

    ------------------------------------------------
       NWT REQUIRED            9 OUTER ITERATIONS 
       AND A TOTAL OF         14 INNER ITERATIONS.
    ------------------------------------------------

 NO OUTPUT CONTROL FOR STRESS PERIOD    6   TIME STEP   18
 
 SOLVING FOR HEAD 
                                                   Max.-Head-Change                         Max.-Flux-Residual
  Residual-Control   Outer-Iter.   Inner-Iter.     Column Row Layer    Maximum-Head-Change  Column Row Layer    Maximum-Flux-Residual          L2-NORM 
          0                 1           2             3    2     1       0.6283265946E-02       3    2    1         0.3268851312E+00      0.1567790820E+01
          0                 2           2             1    2     1       0.2314498149E-02       1    2    1         0.6012822577E-01      0.4142807311E+00
          0                 3           2             1    2     1       0.1039408108E-02       1    2    1         0.2701368796E-01      0.1601649370E+00
          0                 4           2             1    2     1       0.4666676155E-03       1    2    1         0.1213036708E-01      0.6991292914E-01
          0                 5           2             1    2     1       0.2095016025E-03       1    2    1         0.5446033026E-02      0.3118221332E-01
          0                 6           1             1    2     1       0.9404825418E-04       1    2    1         0.2444860189E-02      0.1395449800E-01
          0                 7           1             1    2     1       0.4221898497E-04       1    2    1         0.1097526754E-02      0.6248288988E-02
          0                 8           1             1    2     1       0.1895231938E-04       1    2    1         0.4926871832E-03      0.2798097669E-02
          0                 9           1             1    2     1       0.8507774248E-05       1    2    1         0.2211696261E-03      0.1253116063E-02

    ------------------------------------------------
       NWT REQUIRED            9 OUTER ITERATIONS 
       AND A TOTAL OF         14 INNER ITERATIONS.
    ------------------------------------------------

 NO OUTPUT CONTROL FOR STRESS PERIOD    6   TIME STEP   19
 
 SOLVING FOR HEAD 
                                                   Max.-Head-Change                         Max.-Flux-Residual
  Residual-Control   Outer-Iter.   Inner-Iter.     Column Row Layer    Maximum-Head-Change  Column Row Layer    Maximum-Flux-Residual          L2-NORM 
          0                 1           2             3    2     1       0.6267361563E-02       3    2    1         0.3260453254E+00      0.1556508910E+01
          0                 2           2             1    2     1       0.2312177714E-02       1    2    1         0.6006789942E-01      0.4132717762E+00
          0                 3           2             1    2     1       0.1038366147E-02       1    2    1         0.2698660938E-01      0.1598449326E+00
          0                 4           2             1    2     1       0.4661996305E-03       1    2    1         0.1211820677E-01      0.6977168645E-01
          0                 5           2             1    2     1       0.2092913934E-03       1    2    1         0.5440571185E-02      0.3111917898E-01
          0                 6           1             1    2     1       0.9395383076E-04       1    2    1         0.2442406833E-02      0.1392639396E-01
          0                 7           1             1    2     1       0.4217656989E-04       1    2    1         0.1096424716E-02      0.6235760241E-02
          0                 8           1             1    2     1       0.1893326667E-04       1    2    1         0.4921921522E-03      0.2792512187E-02
          0                 9           1             1    2     1       0.8499215949E-05       1    2    1         0.2209472592E-03      0.1250624755E-02

    ------------------------------------------------
       NWT REQUIRED            9 OUTER ITERATIONS 
       AND A TOTAL OF         14 INNER ITERATIONS.
    ------------------------------------------------

 NO OUTPUT CONTROL FOR STRESS PERIOD    6   TIME STEP   20
 
 SOLVING FOR HEAD 
                                                   Max.-Head-Change                         Max.-Flux-Residual
  Residual-Control   Outer-Iter.   Inner-Iter.     Column Row Layer    Maximum-Head-Change  Column Row Layer    Maximum-Flux-Residual          L2-NORM 
          0                 1           2             3    2     1       0.6251819130E-02       3    2    1         0.3252247626E+00      0.1546651533E+01
          0                 2           2             1    2     1       0.2309889768E-02       1    2    1         0.6000841844E-01      0.4123280432E+00
          0                 3           2             1    2     1       0.1037338764E-02       1    2    1         0.2695990984E-01      0.1595313633E+00
          0                 4           2             1    2     1       0.4657381896E-03       1    2    1         0.1210621658E-01      0.6963270892E-01
          0                 5           2             1    2     1       0.2090841234E-03       1    2    1         0.5435185711E-02      0.3105712818E-01
          0                 6           1             1    2     1       0.9386072592E-04       1    2    1         0.2439987751E-02      0.1389872293E-01
          0                 7           1             1    2     1       0.4213474707E-04       1    2    1         0.1095338074E-02      0.6223422213E-02
          0                 8           1             1    2     1       0.1891447983E-04       1    2    1         0.4917040350E-03      0.2787011911E-02
          0                 9           1             1    2     1       0.8490776952E-05       1    2    1         0.2207279968E-03      0.1248176353E-02

    ------------------------------------------------
       NWT REQUIRED            9 OUTER ITERATIONS 
       AND A TOTAL OF         14 INNER ITERATIONS.
    ------------------------------------------------

 NO OUTPUT CONTROL FOR STRESS PERIOD    6   TIME STEP   21
 
 SOLVING FOR HEAD 
                                                   Max.-Head-Change                         Max.-Flux-Residual
  Residual-Control   Outer-Iter.   Inner-Iter.     Column Row Layer    Maximum-Head-Change  Column Row Layer    Maximum-Flux-Residual          L2-NORM 
          0                 1           2             3    2     1       0.6236629743E-02       3    2    1         0.3244228329E+00      0.1537982030E+01
          0                 2           2             1    2     1       0.2307592877E-02       1    2    1         0.5994870535E-01      0.4114406049E+00
          0                 3           2             1    2     1       0.1036307362E-02       1    2    1         0.2693310589E-01      0.1592249001E+00
          0                 4           2             1    2     1       0.4652749440E-03       1    2    1         0.1209417948E-01      0.6949646577E-01
          0                 5           2             1    2     1       0.2088760435E-03       1    2    1         0.5429779189E-02      0.3099628294E-01
          0                 6           1             1    2     1       0.9376725792E-04       1    2    1         0.2437559227E-02      0.1387158746E-01
          0                 7           1             1    2     1       0.4209276143E-04       1    2    1         0.1094247191E-02      0.6211322191E-02
          0                 8           1             1    2     1       0.1889561970E-04       1    2    1         0.4912140070E-03      0.2781614134E-02
          0                 9           1             1    2     1       0.8482304941E-05       1    2    1         0.2205078762E-03      0.1245764681E-02

    ------------------------------------------------
       NWT REQUIRED            9 OUTER ITERATIONS 
       AND A TOTAL OF         14 INNER ITERATIONS.
    ------------------------------------------------

 NO OUTPUT CONTROL FOR STRESS PERIOD    6   TIME STEP   22
 
 SOLVING FOR HEAD 
                                                   Max.-Head-Change                         Max.-Flux-Residual
  Residual-Control   Outer-Iter.   Inner-Iter.     Column Row Layer    Maximum-Head-Change  Column Row Layer    Maximum-Flux-Residual          L2-NORM 
          0                 1           2             3    2     1       0.6221783651E-02       3    2    1         0.3236391209E+00      0.1530326849E+01
          0                 2           2             1    2     1       0.2305307523E-02       1    2    1         0.5988929335E-01      0.4106028665E+00
          0                 3           2             1    2     1       0.1035281129E-02       1    2    1         0.2690643647E-01      0.1589245814E+00
          0                 4           2             1    2     1       0.4648140178E-03       1    2    1         0.1208220269E-01      0.6936253312E-01
          0                 5           2             1    2     1       0.2086690048E-03       1    2    1         0.5424399725E-02      0.3093644471E-01
          0                 6           1             1    2     1       0.9367425738E-04       1    2    1         0.2435142848E-02      0.1384489499E-01
          0                 7           1             1    2     1       0.4205098563E-04       1    2    1         0.1093161763E-02      0.6199417357E-02
          0                 8           1             1    2     1       0.1887685412E-04       1    2    1         0.4907264337E-03      0.2776304296E-02
          0                 9           1             1    2     1       0.8473875448E-05       1    2    1         0.2202888563E-03      0.1243396222E-02

    ------------------------------------------------
       NWT REQUIRED            9 OUTER ITERATIONS 
       AND A TOTAL OF         14 INNER ITERATIONS.
    ------------------------------------------------

 NO OUTPUT CONTROL FOR STRESS PERIOD    6   TIME STEP   23
 
 SOLVING FOR HEAD 
                                                   Max.-Head-Change                         Max.-Flux-Residual
  Residual-Control   Outer-Iter.   Inner-Iter.     Column Row Layer    Maximum-Head-Change  Column Row Layer    Maximum-Flux-Residual          L2-NORM 
          0                 1           2             3    2     1       0.6207271198E-02       3    2    1         0.3228730925E+00      0.1523583820E+01
          0                 2           2             1    2     1       0.2303054236E-02       1    2    1         0.5983071549E-01      0.4098048754E+00
          0                 3           2             1    2     1       0.1034269287E-02       1    2    1         0.2688014120E-01      0.1586294223E+00
          0                 4           2             1    2     1       0.4643595525E-03       1    2    1         0.1207039383E-01      0.6923068731E-01
          0                 5           2             1    2     1       0.2084648667E-03       1    2    1         0.5419095660E-02      0.3087752993E-01
          0                 6           1             1    2     1       0.9358255942E-04       1    2    1         0.2432760332E-02      0.1381861058E-01
          0                 7           1             1    2     1       0.4200979510E-04       1    2    1         0.1092091545E-02      0.6187694032E-02
          0                 8           1             1    2     1       0.1885835116E-04       1    2    1         0.4902456886E-03      0.2771075254E-02
          0                 9           1             8    2     1       0.8467675195E-05       1    2    1         0.2200729012E-03      0.1241063664E-02

    ------------------------------------------------
       NWT REQUIRED            9 OUTER ITERATIONS 
       AND A TOTAL OF         14 INNER ITERATIONS.
    ------------------------------------------------

 NO OUTPUT CONTROL FOR STRESS PERIOD    6   TIME STEP   24
 
 SOLVING FOR HEAD 
                                                   Max.-Head-Change                         Max.-Flux-Residual
  Residual-Control   Outer-Iter.   Inner-Iter.     Column Row Layer    Maximum-Head-Change  Column Row Layer    Maximum-Flux-Residual          L2-NORM 
          0                 1           2             3    2     1       0.6192996874E-02       3    2    1         0.3221196588E+00      0.1517629011E+01
          0                 2           2             1    2     1       0.2300791524E-02       1    2    1         0.5977189317E-01      0.4090454841E+00
          0                 3           2             1    2     1       0.1033253209E-02       1    2    1         0.2685373589E-01      0.1583391758E+00
          0                 4           2             1    2     1       0.4639031854E-03       1    2    1         0.1205853554E-01      0.6910066609E-01
          0                 5           2             1    2     1       0.2082598752E-03       1    2    1         0.5413769399E-02      0.3081941702E-01
          0                 6           1             1    2     1       0.9349047804E-04       1    2    1         0.2430367849E-02      0.1379269158E-01
          0                 7           1             1    2     1       0.4196843273E-04       1    2    1         0.1091016853E-02      0.6176147239E-02
          0                 8           1             1    2     1       0.1883977066E-04       1    2    1         0.4897629340E-03      0.2765916517E-02
          0                 9           1             8    2     1       0.8463865254E-05       1    2    1         0.2198560506E-03      0.1238761889E-02

    ------------------------------------------------
       NWT REQUIRED            9 OUTER ITERATIONS 
       AND A TOTAL OF         14 INNER ITERATIONS.
    ------------------------------------------------

 NO OUTPUT CONTROL FOR STRESS PERIOD    6   TIME STEP   25
 
 SOLVING FOR HEAD 
                                                   Max.-Head-Change                         Max.-Flux-Residual
  Residual-Control   Outer-Iter.   Inner-Iter.     Column Row Layer    Maximum-Head-Change  Column Row Layer    Maximum-Flux-Residual          L2-NORM 
          0                 1           2             3    2     1       0.6179127233E-02       3    2    1         0.3213877005E+00      0.1512339044E+01
          0                 2           2             1    2     1       0.2298539916E-02       1    2    1         0.5971336050E-01      0.4083209818E+00
          0                 3           2             1    2     1       0.1032242107E-02       1    2    1         0.2682746006E-01      0.1580544594E+00
          0                 4           2             1    2     1       0.4634490508E-03       1    2    1         0.1204673529E-01      0.6897288156E-01
          0                 5           2             1    2     1       0.2080558861E-03       1    2    1         0.5408469196E-02      0.3076228930E-01
          0                 6           1             1    2     1       0.9339884761E-04       1    2    1         0.2427987067E-02      0.1376719328E-01
          0                 7           1             1    2     1       0.4192727146E-04       1    2    1         0.1089947408E-02      0.6164757622E-02
          0                 8           1             8    2     1       0.1882519043E-04       1    2    1         0.4892825456E-03      0.2760843289E-02
          0                 9           1             8    2     1       0.8460227889E-05       8    2    1         0.2197311248E-03      0.1236498396E-02

    ------------------------------------------------
       NWT REQUIRED            9 OUTER ITERATIONS 
       AND A TOTAL OF         14 INNER ITERATIONS.
    ------------------------------------------------

 NO OUTPUT CONTROL FOR STRESS PERIOD    6   TIME STEP   26
 
 SOLVING FOR HEAD 
                                                   Max.-Head-Change                         Max.-Flux-Residual
  Residual-Control   Outer-Iter.   Inner-Iter.     Column Row Layer    Maximum-Head-Change  Column Row Layer    Maximum-Flux-Residual          L2-NORM 
          0                 1           2             3    2     1       0.6165476824E-02       3    2    1         0.3206673912E+00      0.1507620041E+01
          0                 2           2             1    2     1       0.2296299347E-02       1    2    1         0.5965511505E-01      0.4076241321E+00
          0                 3           2             1    2     1       0.1031235958E-02       1    2    1         0.2680131302E-01      0.1577742287E+00
          0                 4           2             1    2     1       0.4629971404E-03       1    2    1         0.1203499285E-01      0.6884686687E-01
          0                 5           2             1    2     1       0.2078528955E-03       1    2    1         0.5403194944E-02      0.3070595331E-01
          0                 6           1             1    2     1       0.9330766512E-04       1    2    1         0.2425617942E-02      0.1374207691E-01
          0                 7           1             1    2     1       0.4188631277E-04       1    2    1         0.1088883207E-02      0.6153537313E-02
          0                 8           1             8    2     1       0.1881669016E-04       1    2    1         0.4888045014E-03      0.2755836031E-02
          0                 9           1             8    2     1       0.8456395187E-05       8    2    1         0.2196318453E-03      0.1234264194E-02

    ------------------------------------------------
       NWT REQUIRED            9 OUTER ITERATIONS 
       AND A TOTAL OF         14 INNER ITERATIONS.
    ------------------------------------------------

 NO OUTPUT CONTROL FOR STRESS PERIOD    6   TIME STEP   27
 
 SOLVING FOR HEAD 
                                                   Max.-Head-Change                         Max.-Flux-Residual
  Residual-Control   Outer-Iter.   Inner-Iter.     Column Row Layer    Maximum-Head-Change  Column Row Layer    Maximum-Flux-Residual          L2-NORM 
          0                 1           2             3    2     1       0.6152126846E-02       3    2    1         0.3199629680E+00      0.1523488198E+01
          0                 2           2             1    2     1       0.2294069603E-02       5   13    1         0.9228702587E-01      0.4392260639E+00
          0                 3           2             1    2     1       0.1030234660E-02       1    2    1         0.2677529221E-01      0.1582206119E+00
          0                 4           2             1    2     1       0.4625474065E-03       1    2    1         0.1202330701E-01      0.6874232309E-01
          0                 5           2             1    2     1       0.2076508828E-03       1    2    1         0.5397946099E-02      0.3065357964E-01
          0                 6           1             1    2     1       0.9321692159E-04       1    2    1         0.2423260220E-02      0.1371848790E-01
          0                 7           1             8    2     1       0.4185176143E-04       1    2    1         0.1087824124E-02      0.6143016405E-02
          0                 8           1             8    2     1       0.1880857506E-04       8    2    1         0.4885014255E-03      0.2751142435E-02
          0                 9           1             8    2     1       0.8452735062E-05       8    2    1         0.2195370595E-03      0.1232168504E-02

    ------------------------------------------------
       NWT REQUIRED            9 OUTER ITERATIONS 
       AND A TOTAL OF         14 INNER ITERATIONS.
    ------------------------------------------------

 NO OUTPUT CONTROL FOR STRESS PERIOD    6   TIME STEP   28
 
 SOLVING FOR HEAD 
                                                   Max.-Head-Change                         Max.-Flux-Residual
  Residual-Control   Outer-Iter.   Inner-Iter.     Column Row Layer    Maximum-Head-Change  Column Row Layer    Maximum-Flux-Residual          L2-NORM 
          0                 1           2             2    2     1       0.8622863955E-02       4   13    1         0.4910685321E+00      0.1838892491E+01
          0                 2           2             1    2     1       0.2295051105E-02       2    2    1         0.7814270319E-01      0.4494572629E+00
          0                 3           2             1    2     1       0.1030885080E-02       1    2    1         0.2678874439E-01      0.1595631020E+00
          0                 4           2             1    2     1       0.4628756002E-03       1    2    1         0.1203124293E-01      0.6881648377E-01
          0                 5           2             1    2     1       0.2078044159E-03       1    2    1         0.5401835637E-02      0.3064556279E-01
          0                 6           1             1    2     1       0.9328688515E-04       1    2    1         0.2425062087E-02      0.1371194525E-01
          0                 7           1             1    2     1       0.4187712294E-04       1    2    1         0.1088642275E-02      0.6139825032E-02
          0                 8           1             8    2     1       0.1880043369E-04       1    2    1         0.4886974657E-03      0.2749666997E-02
          0                 9           1             8    2     1       0.8449063682E-05       8    2    1         0.2194419731E-03      0.1231494155E-02

    ------------------------------------------------
       NWT REQUIRED            9 OUTER ITERATIONS 
       AND A TOTAL OF         14 INNER ITERATIONS.
    ------------------------------------------------

 NO OUTPUT CONTROL FOR STRESS PERIOD    6   TIME STEP   29
 
 SOLVING FOR HEAD 
                                                   Max.-Head-Change                         Max.-Flux-Residual
  Residual-Control   Outer-Iter.   Inner-Iter.     Column Row Layer    Maximum-Head-Change  Column Row Layer    Maximum-Flux-Residual          L2-NORM 
          0                 1           2             4   13     1       0.2255900468E-01       4   13    1         0.1304907299E+01      0.2907629058E+01
          0                 2           2             1    2     1       0.2298421786E-02       2    2    1         0.1056414262E+00      0.4519979485E+00
          0                 3           2             1    2     1       0.1032591146E-02       1    2    1         0.2682991722E-01      0.1610860772E+00
          0                 4           2             1    2     1       0.4636747658E-03       1    2    1         0.1205147025E-01      0.6898585514E-01
          0                 5           2             1    2     1       0.2081688700E-03       1    2    1         0.5411216525E-02      0.3067373570E-01
          0                 6           1             1    2     1       0.9345144796E-04       1    2    1         0.2429324549E-02      0.1372090099E-01
          0                 7           1             1    2     1       0.4195114756E-04       1    2    1         0.1090564242E-02      0.6143458675E-02
          0                 8           1             1    2     1       0.1883201672E-04       1    2    1         0.4895615549E-03      0.2751214555E-02
          0                 9           1             1    2     1       0.8453721250E-05       1    2    1         0.2197655435E-03      0.1232158720E-02

    ------------------------------------------------
       NWT REQUIRED            9 OUTER ITERATIONS 
       AND A TOTAL OF         14 INNER ITERATIONS.
    ------------------------------------------------

 NO OUTPUT CONTROL FOR STRESS PERIOD    6   TIME STEP   30



 STREAM LISTING     PERIOD      6   STEP       30

 LAYER ROW COL. STREAM  RCH.  FLOW INTO     FLOW TO   FLOW OUT OF   OVRLND.     DIRECT     STREAM       STREAM     STREAM     STREAM   STREAMBED  STREAMBED
                SEG.NO.  NO.  STRM. RCH.    AQUIFER    STRM. RCH.    RUNOFF     PRECIP       ET          HEAD       DEPTH      WIDTH   CONDCTNC.   GRADIENT

   1    1    1     1     1    9.9000E+01  4.7281E-01   9.8527E+01  0.000E+00  0.000E+00  0.000E+00  1.09484E+03  1.796E+00  2.191E+01  9.859E-02  1.599E+00
   1    2    2     1     2    9.8527E+01  7.3365E-01   9.7794E+01  0.000E+00  0.000E+00  0.000E+00  1.08985E+03  1.793E+00  2.187E+01  1.531E-01  1.598E+00
   1    3    3     1     3    9.7794E+01  6.2707E-01   9.7166E+01  0.000E+00  0.000E+00  0.000E+00  1.08421E+03  1.791E+00  2.181E+01  1.309E-01  1.597E+00
   1    3    4     1     4    9.7166E+01  5.7859E-01   9.6588E+01  0.000E+00  0.000E+00  0.000E+00  1.07920E+03  1.789E+00  2.177E+01  1.208E-01  1.596E+00
   1    4    5     2     1    9.4588E+01  4.4299E-01   9.4145E+01  0.000E+00  0.000E+00  0.000E+00  1.07461E+03  2.679E+00  1.200E+01  7.800E-02  1.893E+00
   1    5    6     2     2    9.4145E+01  3.4036E-01   9.3805E+01  0.000E+00  0.000E+00  0.000E+00  1.06918E+03  2.673E+00  1.200E+01  6.000E-02  1.891E+00
   1    6    6     2     3    9.3805E+01  3.4001E-01   9.3465E+01  0.000E+00  0.000E+00  0.000E+00  1.06446E+03  2.667E+00  1.200E+01  6.000E-02  1.889E+00
   1    7    6     2     4    9.3465E+01  3.3967E-01   9.3125E+01  0.000E+00  0.000E+00  0.000E+00  1.05974E+03  2.661E+00  1.200E+01  6.000E-02  1.887E+00
   1    8    6     2     5    9.3125E+01  3.3932E-01   9.2786E+01  0.000E+00  0.000E+00  0.000E+00  1.05501E+03  2.655E+00  1.200E+01  6.000E-02  1.885E+00
   1    3    5     3     1    2.0000E+00  2.8252E-01   1.7175E+00  0.000E+00  0.000E+00  0.000E+00  1.07555E+03  1.909E+00  9.636E+00  7.227E-02  1.955E+00
   1    3    6     3     2    1.7175E+00  2.4905E-01   1.4684E+00  0.000E+00  0.000E+00  0.000E+00  1.07264E+03  1.727E+00  8.909E+00  6.682E-02  1.864E+00
   1    3    7     3     3    1.4684E+00  1.9718E-01   1.2712E+00  0.000E+00  0.000E+00  0.000E+00  1.06987E+03  1.555E+00  8.218E+00  5.547E-02  1.777E+00
   1    4    8     3     4    1.2712E+00  2.2567E-01   1.0456E+00  0.000E+00  0.000E+00  0.000E+00  1.06682E+03  1.364E+00  7.455E+00  6.709E-02  1.682E+00
   1    5    8     3     5    1.0456E+00  1.5790E-01   8.8768E-01  0.000E+00  0.000E+00  0.000E+00  1.06362E+03  1.164E+00  6.655E+00  4.991E-02  1.582E+00
   1    6    8     3     6    8.8768E-01  5.5980E-02   8.3170E-01  0.000E+00  0.000E+00  0.000E+00  1.06158E+03  1.036E+00  6.145E+00  1.844E-02  1.518E+00
   1    5   10     4     1    1.0000E+01  9.0919E-02   9.9091E+00  0.000E+00  0.000E+00  0.000E+00  1.07836E+03  6.368E-01  1.000E+01  2.500E-02  1.212E+00
   1    5    9     4     2    9.9091E+00  1.8158E-01   9.7275E+00  0.000E+00  0.000E+00  0.000E+00  1.07154E+03  6.315E-01  1.000E+01  5.000E-02  1.211E+00
   1    6    8     4     3    9.7275E+00  1.2689E-01   9.6006E+00  0.000E+00  0.000E+00  0.000E+00  1.06381E+03  6.256E-01  1.000E+01  3.500E-02  1.209E+00
   1    6    8     5     1    1.0432E+01  2.2686E-01   1.0205E+01  0.000E+00  0.000E+00  0.000E+00  1.05868E+03  6.790E-01  1.542E+01  6.166E-02  1.226E+00
   1    7    7     5     2    1.0205E+01  2.7894E-01   9.9265E+00  0.000E+00  0.000E+00  0.000E+00  1.05417E+03  6.732E-01  1.519E+01  7.594E-02  1.224E+00
   1    8    7     5     3    9.9265E+00  1.9221E-01   9.7343E+00  0.000E+00  0.000E+00  0.000E+00  1.04992E+03  6.676E-01  1.497E+01  5.241E-02  1.223E+00
   1    8    6     5     4    9.7343E+00  1.3577E-01   9.5985E+00  0.000E+00  0.000E+00  0.000E+00  1.04691E+03  6.637E-01  1.482E+01  3.706E-02  1.221E+00
   1    9    6     6     1    1.0238E+02  3.5054E-01   1.0203E+02  0.000E+00  0.000E+00  0.000E+00  1.04557E+03  2.842E+00  1.200E+01  6.000E-02  1.947E+00
   1   10    7     6     2    1.0203E+02  3.5018E-01   1.0168E+02  0.000E+00  0.000E+00  0.000E+00  1.04102E+03  2.836E+00  1.200E+01  6.000E-02  1.945E+00
   1   11    7     6     3    1.0168E+02  3.4983E-01   1.0133E+02  0.000E+00  0.000E+00  0.000E+00  1.03647E+03  2.831E+00  1.200E+01  6.000E-02  1.944E+00
   1   12    7     6     4    1.0133E+02  3.4948E-01   1.0098E+02  0.000E+00  0.000E+00  0.000E+00  1.03192E+03  2.825E+00  1.200E+01  6.000E-02  1.942E+00
   1   13    7     6     5    1.0098E+02  2.8038E-02   1.0096E+02  0.000E+00  0.000E+00  0.000E+00  1.02873E+03  2.822E+00  1.200E+01  2.400E-02  3.894E-01
   1   14    9     7     1    1.5000E+02  1.1636E+00   1.4884E+02  0.000E+00  0.000E+00  0.000E+00  1.03987E+03  2.288E+00  5.530E+01  5.593E-01  6.934E-01
   1   13    8     7     2    1.4884E+02  1.5885E+00   1.4725E+02  0.000E+00  0.000E+00  0.000E+00  1.03478E+03  2.281E+00  5.526E+01  6.149E-01  8.612E-01
   1   13    7     7     3    1.4725E+02  1.1900E+00   1.4606E+02  0.000E+00  0.000E+00  0.000E+00  1.02969E+03  2.273E+00  5.523E+01  5.586E-01  7.101E-01
   1   13    6     8     1    2.4701E+02  9.8020E-01   2.4603E+02  0.000E+00  0.000E+00  0.000E+00  1.02527E+03  3.394E+00  4.921E+01  5.015E-01  6.516E-01
   1   13    5     8     2    2.4603E+02  1.8965E-01   2.4584E+02  0.000E+00  0.000E+00  0.000E+00  1.01902E+03  3.391E+00  4.916E+01  5.010E-01  1.262E-01
   1   13    4     8     3    2.4584E+02 -1.6893E+00   2.4753E+02  0.000E+00  0.000E+00  0.000E+00  1.01277E+03  3.395E+00  4.922E+01  5.016E+00 -1.123E-01
   1   13    3     8     4    2.4753E+02 -2.7622E+00   2.5030E+02  0.000E+00  0.000E+00  0.000E+00  1.00653E+03  3.406E+00  4.939E+01  5.033E+00 -1.829E-01
   1   13    2     8     5    2.5030E+02 -1.4774E+00   2.5177E+02  0.000E+00  0.000E+00  0.000E+00  1.00029E+03  3.417E+00  4.954E+01  5.049E+00 -9.754E-02
   1   13    1     8     6    2.5177E+02 -1.2060E+00   2.5298E+02  0.000E+00  0.000E+00  0.000E+00  9.95299E+02  3.424E+00  4.964E+01  3.035E+00 -1.324E-01
   1    6    8     9     1    0.0000E+00  0.0000E+00   0.0000E+00  0.000E+00  0.000E+00  0.000E+00  1.07850E+03  0.000E+00  4.000E+00  0.000E+00  1.000E+00





UNSATURATED ZONE PACKAGE VOLUMETRIC BUDGET FOR  TIME STEP    30 STRESS PERIOD    6
  ------------------------------------------------------------------------------



     CUMULATIVE VOLUMES      L**3       RATES FOR THIS TIME STEP      L**3/T
     ------------------                 ------------------------

           IN:                                      IN:
           ---                                      ---
        INFILTRATION =      183082.4255          INFILTRATION =       0.0000E+00

          OUT:                                     OUT:
          ----                                     ----
              UZF ET =   113987150.3997                UZF ET =          28.0000
        UZF RECHARGE =   346965626.8243          UZF RECHARGE =          25.0902

            IN - OUT =  -460769694.7986              IN - OUT =         -53.0902

          STORAGE:                                 STORAGE:
          --------                                 --------
      STORAGE CHANGE =  -460748670.3109        STORAGE CHANGE =         -53.0895

 PERCENT DISCREPANCY IS DIFFERENCE BETWEEN IN-OUT MINUS CHANGE IN STORAGE
 DIVIDED BY THE AVERAGE OF IN AND OUT TIMES 100

 PERCENT DISCREPANCY =          -0.00     PERCENT DISCREPANCY =          -0.00






1
  VOLUMETRIC BUDGET FOR ENTIRE MODEL AT END OF TIME STEP   30, STRESS PERIOD   6
  ------------------------------------------------------------------------------

     CUMULATIVE VOLUMES      L**3       RATES FOR THIS TIME STEP      L**3/T
     ------------------                 ------------------------

           IN:                                      IN:
           ---                                      ---
             STORAGE     =     4974194.5000               STORAGE     =           0.0000
       CONSTANT HEAD     =           0.0000         CONSTANT HEAD     =           0.0000
               WELLS     =           0.0000                 WELLS     =           0.0000
     HEAD DEP BOUNDS     =     3680476.5000       HEAD DEP BOUNDS     =           0.2740
      STREAM LEAKAGE     =   149356192.0000        STREAM LEAKAGE     =          13.1560
        UZF RECHARGE     =   346965632.0000          UZF RECHARGE     =          25.0902
               GW ET     =           0.0000                 GW ET     =           0.0000
     SURFACE LEAKAGE     =           0.0000       SURFACE LEAKAGE     =           0.0000
    SUPPLEMENTARY WELLS  =           0.0000      SUPPLEMENTARY WELLS  =           0.0000

                TOTAL IN =   504976512.0000                  TOTAL IN =          38.5202

          OUT:                                     OUT:
          ----                                     ----
             STORAGE     =   346827424.0000               STORAGE     =          30.0888
       CONSTANT HEAD     =           0.0000         CONSTANT HEAD     =           0.0000
               WELLS     =           0.0000                 WELLS     =           0.0000
     HEAD DEP BOUNDS     =     3865085.2500       HEAD DEP BOUNDS     =           0.2924
      STREAM LEAKAGE     =   151421504.0000        STREAM LEAKAGE     =           7.1349
        UZF RECHARGE     =           0.0000          UZF RECHARGE     =           0.0000
               GW ET     =     2768291.0000                 GW ET     =           1.0000
     SURFACE LEAKAGE     =           0.0000       SURFACE LEAKAGE     =           0.0000
    SUPPLEMENTARY WELLS  =       31277.0352      SUPPLEMENTARY WELLS  =           0.0000

               TOTAL OUT =   504913568.0000                 TOTAL OUT =          38.5161

                IN - OUT =       62944.0000                  IN - OUT =       4.1008E-03

     PERCENT DISCREPANCY =           0.01         PERCENT DISCREPANCY =           0.01






         TIME SUMMARY AT END OF TIME STEP   30 IN STRESS PERIOD    6
                    SECONDS     MINUTES      HOURS       DAYS        YEARS
                    -----------------------------------------------------------
   TIME STEP LENGTH  87600.      1460.0      24.333      1.0139     2.77588E-03
 STRESS PERIOD TIME 2.62800E+06  43800.      730.00      30.417     8.32763E-02
         TOTAL TIME 1.32264E+07 2.20440E+05  3674.0      153.08     0.41912    
1
1
                            STRESS PERIOD NO.    7, LENGTH =   2628000.    
                            -----------------------------------------------

                              NUMBER OF TIME STEPS =    30

                               MULTIPLIER FOR DELT =     1.000

                            INITIAL TIME STEP SIZE =   87600.00    

 WELL NO.  LAYER   ROW   COL   STRESS RATE         
 --------------------------------------------------
      1      1      6      4       0.000    
      2      1      6      7       0.000    
      3      1      7      4       0.000    
      4      1      7      5       0.000    
      5      1      8      4       0.000    
      6      1      8      5       0.000    
      7      1      9      4       0.000    
      8      1      9      5       0.000    
      9      1     10      4       0.000    
     10      1     10      5       0.000    

     10 WELLS

 REUSING NON-PARAMETER GHB CELLS FROM LAST STRESS PERIOD

      2 GHB CELLS

 REUSING STREAM SEGMENT DATA FROM LAST STRESS PERIOD



            AREAL INFILTRATION RATE
 READING ON UNIT   19 WITH FORMAT: (10F4.0)            

            1           2           3           4           5           6           7           8           9          10
 ........................................................................................................................
   1    0.000       0.000       0.000       0.000       0.000       0.000       0.000       0.000       0.000       0.000    
   2    0.000       0.000       0.000       0.000       0.000       0.000       0.000       0.000       0.000       0.000    
   3    0.000       0.000       0.000       0.000       0.000       0.000       0.000       0.000       0.000       0.000    
   4    0.000       0.000       0.000       0.000       0.000       0.000       0.000       0.000       0.000       0.000    
   5    0.000       0.000       0.000       0.000       0.000       0.000       0.000       0.000       0.000       0.000    
   6    0.000       0.000       0.000       0.000       0.000       0.000       0.000       0.000       0.000       0.000    
   7    0.000       0.000       0.000       0.000       0.000       0.000       0.000       0.000       0.000       0.000    
   8    0.000       0.000       0.000       0.000       0.000       0.000       0.000       0.000       0.000       0.000    
   9    0.000       0.000       0.000       0.000       0.000       0.000       0.000       0.000       0.000       0.000    
  10    0.000       0.000       0.000       0.000       0.000       0.000       0.000       0.000       0.000       0.000    
  11    0.000       0.000       0.000       0.000       0.000       0.000       0.000       0.000       0.000       0.000    
  12    0.000       0.000       0.000       0.000       0.000       0.000       0.000       0.000       0.000       0.000    
  13    0.000       0.000       0.000       0.000       0.000       0.000       0.000       0.000       0.000       0.000    
  14    0.000       0.000       0.000       0.000       0.000       0.000       0.000       0.000       0.000       0.000    
  15    0.000       0.000       0.000       0.000       0.000       0.000       0.000       0.000       0.000       0.000    

                  ET RATE =  3.000000E-08

 USING ET EXTINCTION DEPTH FROM PREVIOUS STRESS PERIOD. CURRENT PERIOD IS:       7

 USING EXTINCTION WATER CONTENT FROM PREVIOUS STRESS PERIOD. CURRENT PERIOD IS:       7

 PROCESSING AGO STRESS PERIOD DATA

 READING AGO STRESS PERIOD DATA

 READING IRRIGATION STREAM

 READING IRRIGATION WELL

 READING SUPPLEMENTAL WEL

 END PROCESSING AGO STRESS PERIOD DATA OPTIONS
 
 SOLVING FOR HEAD 
                                                   Max.-Head-Change                         Max.-Flux-Residual
  Residual-Control   Outer-Iter.   Inner-Iter.     Column Row Layer    Maximum-Head-Change  Column Row Layer    Maximum-Flux-Residual          L2-NORM 
          0                 1           2             2   13     1       0.1973031572E-01       2   13    1         0.1128269214E+01      0.2365922954E+01
          0                 2           2             1    2     1       0.2301234099E-02       2    2    1         0.1051294960E+00      0.4621230736E+00
          0                 3           2             1    2     1       0.1033850744E-02       1    2    1         0.2686271174E-01      0.1613352122E+00
          0                 4           2             1    2     1       0.4642395508E-03       1    2    1         0.1206616449E-01      0.6898312191E-01
          0                 5           2             1    2     1       0.2084222192E-03       1    2    1         0.5417806240E-02      0.3067064405E-01
          0                 6           1             1    2     1       0.9356511242E-04       1    2    1         0.2432280711E-02      0.1371926459E-01
          0                 7           1             1    2     1       0.4200214645E-04       1    2    1         0.1091890557E-02      0.6142618222E-02
          0                 8           1             1    2     1       0.1885489912E-04       1    2    1         0.4901566458E-03      0.2750790752E-02
          0                 9           1             1    2     1       0.8463988559E-05       1    2    1         0.2200325557E-03      0.1231947949E-02

    ------------------------------------------------
       NWT REQUIRED            9 OUTER ITERATIONS 
       AND A TOTAL OF         14 INNER ITERATIONS.
    ------------------------------------------------

 NO OUTPUT CONTROL FOR STRESS PERIOD    7   TIME STEP    1
 
 SOLVING FOR HEAD 
                                                   Max.-Head-Change                         Max.-Flux-Residual
  Residual-Control   Outer-Iter.   Inner-Iter.     Column Row Layer    Maximum-Head-Change  Column Row Layer    Maximum-Flux-Residual          L2-NORM 
          0                 1           2             2   13     1       0.1782344942E-01       2   13    1         0.1019132996E+01      0.2274494532E+01
          0                 2           2             1    2     1       0.2304005040E-02       2    2    1         0.1046268112E+00      0.4628026372E+00
          0                 3           2             1    2     1       0.1035091803E-02       1    2    1         0.2689502380E-01      0.1613235286E+00
          0                 4           2             1    2     1       0.4647960183E-03       1    2    1         0.1208064246E-01      0.6897315524E-01
          0                 5           2             1    2     1       0.2086718351E-03       1    2    1         0.5424298912E-02      0.3066601521E-01
          0                 6           1             1    2     1       0.9367710164E-04       1    2    1         0.2435193317E-02      0.1371697521E-01
          0                 7           1             1    2     1       0.4205239251E-04       1    2    1         0.1093197307E-02      0.6141487514E-02
          0                 8           1             1    2     1       0.1887744388E-04       1    2    1         0.4907429559E-03      0.2750238283E-02
          0                 9           1             1    2     1       0.8474104300E-05       1    2    1         0.2202956225E-03      0.1231680773E-02

    ------------------------------------------------
       NWT REQUIRED            9 OUTER ITERATIONS 
       AND A TOTAL OF         14 INNER ITERATIONS.
    ------------------------------------------------

 NO OUTPUT CONTROL FOR STRESS PERIOD    7   TIME STEP    2
 
 SOLVING FOR HEAD 
                                                   Max.-Head-Change                         Max.-Flux-Residual
  Residual-Control   Outer-Iter.   Inner-Iter.     Column Row Layer    Maximum-Head-Change  Column Row Layer    Maximum-Flux-Residual          L2-NORM 
          0                 1           2             2   13     1       0.1608823839E-01       2   13    1         0.9198279203E+00      0.2196871340E+01
          0                 2           2             1    2     1       0.2306735242E-02       2    2    1         0.1041331522E+00      0.4636957097E+00
          0                 3           2             1    2     1       0.1036314608E-02       1    2    1         0.2692686080E-01      0.1613081043E+00
          0                 4           2             1    2     1       0.4653442960E-03       1    2    1         0.1209490746E-01      0.6895992831E-01
          0                 5           2             1    2     1       0.2089177742E-03       1    2    1         0.5430696009E-02      0.3065995996E-01
          0                 6           1             1    2     1       0.9378743988E-04       1    2    1         0.2438063020E-02      0.1371405579E-01
          0                 7           1             1    2     1       0.4210189774E-04       1    2    1         0.1094484800E-02      0.6140077486E-02
          0                 8           1             1    2     1       0.1889965575E-04       1    2    1         0.4913206189E-03      0.2749561119E-02
          0                 9           1             1    2     1       0.8484070224E-05       1    2    1         0.2205548089E-03      0.1231358484E-02

    ------------------------------------------------
       NWT REQUIRED            9 OUTER ITERATIONS 
       AND A TOTAL OF         14 INNER ITERATIONS.
    ------------------------------------------------

 NO OUTPUT CONTROL FOR STRESS PERIOD    7   TIME STEP    3
 
 SOLVING FOR HEAD 
                                                   Max.-Head-Change                         Max.-Flux-Residual
  Residual-Control   Outer-Iter.   Inner-Iter.     Column Row Layer    Maximum-Head-Change  Column Row Layer    Maximum-Flux-Residual          L2-NORM 
          0                 1           2             2   13     1       0.1450922758E-01       2   13    1         0.8294684329E+00      0.2131121683E+01
          0                 2           2             1    2     1       0.2309425378E-02       2    2    1         0.1036491112E+00      0.4647969815E+00
          0                 3           2             1    2     1       0.1037519463E-02       1    2    1         0.2695823062E-01      0.1612967458E+00
          0                 4           2             1    2     1       0.4658845218E-03       1    2    1         0.1210896306E-01      0.6894421164E-01
          0                 5           2             1    2     1       0.2091600993E-03       1    2    1         0.5436999143E-02      0.3065261360E-01
          0                 6           1             1    2     1       0.9389615515E-04       1    2    1         0.2440890537E-02      0.1371055616E-01
          0                 7           1             1    2     1       0.4215067439E-04       1    2    1         0.1095753354E-02      0.6138410227E-02
          0                 8           1             1    2     1       0.1892154046E-04       1    2    1         0.4918897760E-03      0.2748770666E-02
          0                 9           1             1    2     1       0.8493889334E-05       1    2    1         0.2208101753E-03      0.1230985143E-02

    ------------------------------------------------
       NWT REQUIRED            9 OUTER ITERATIONS 
       AND A TOTAL OF         14 INNER ITERATIONS.
    ------------------------------------------------

 NO OUTPUT CONTROL FOR STRESS PERIOD    7   TIME STEP    4
 
 SOLVING FOR HEAD 
                                                   Max.-Head-Change                         Max.-Flux-Residual
  Residual-Control   Outer-Iter.   Inner-Iter.     Column Row Layer    Maximum-Head-Change  Column Row Layer    Maximum-Flux-Residual          L2-NORM 
          0                 1           2             2   13     1       0.1307228403E-01       2   13    1         0.7472449058E+00      0.2076042999E+01
          0                 2           2             1    2     1       0.2312096813E-02       2    2    1         0.1031744713E+00      0.4660104433E+00
          0                 3           2             1    2     1       0.1038715961E-02       1    2    1         0.2698938255E-01      0.1612813908E+00
          0                 4           2             1    2     1       0.4664210003E-03       1    2    1         0.1212292116E-01      0.6892522294E-01
          0                 5           2             1    2     1       0.2094007429E-03       1    2    1         0.5443258559E-02      0.3064379754E-01
          0                 6           1             1    2     1       0.9400411583E-04       1    2    1         0.2443698434E-02      0.1370640688E-01
          0                 7           1             1    2     1       0.4219911215E-04       1    2    1         0.1097013096E-02      0.6136455174E-02
          0                 8           1             1    2     1       0.1894327286E-04       1    2    1         0.4924549725E-03      0.2747854586E-02
          0                 9           1             1    2     1       0.8503640163E-05       1    2    1         0.2210637626E-03      0.1230555835E-02

    ------------------------------------------------
       NWT REQUIRED            9 OUTER ITERATIONS 
       AND A TOTAL OF         14 INNER ITERATIONS.
    ------------------------------------------------

 OUTPUT CONTROL FOR STRESS PERIOD    7   TIME STEP    5
    PRINT BUDGET
    SAVE BUDGET
 UBUDSV SAVING "         STORAGE" ON UNIT102 AT TIME STEP     5, STRESS PERIOD    7
 UBUDSV SAVING "   CONSTANT HEAD" ON UNIT102 AT TIME STEP     5, STRESS PERIOD    7
 UBUDSV SAVING "FLOW RIGHT FACE " ON UNIT102 AT TIME STEP     5, STRESS PERIOD    7
 UBUDSV SAVING "FLOW FRONT FACE " ON UNIT102 AT TIME STEP     5, STRESS PERIOD    7

  HEAD DEP BOUNDS   PERIOD    7   STEP     5
 BOUNDARY      1   LAYER   1   ROW    13   COL     1   RATE   -0.292869    
 BOUNDARY      2   LAYER   1   ROW    14   COL     9   RATE    0.273971    



 STREAM LISTING     PERIOD      7   STEP        5

 LAYER ROW COL. STREAM  RCH.  FLOW INTO     FLOW TO   FLOW OUT OF   OVRLND.     DIRECT     STREAM       STREAM     STREAM     STREAM   STREAMBED  STREAMBED
                SEG.NO.  NO.  STRM. RCH.    AQUIFER    STRM. RCH.    RUNOFF     PRECIP       ET          HEAD       DEPTH      WIDTH   CONDCTNC.   GRADIENT

   1    1    1     1     1    9.9000E+01  4.7281E-01   9.8527E+01  0.000E+00  0.000E+00  0.000E+00  1.09484E+03  1.796E+00  2.191E+01  9.859E-02  1.599E+00
   1    2    2     1     2    9.8527E+01  7.3365E-01   9.7794E+01  0.000E+00  0.000E+00  0.000E+00  1.08985E+03  1.793E+00  2.187E+01  1.531E-01  1.598E+00
   1    3    3     1     3    9.7794E+01  6.2707E-01   9.7166E+01  0.000E+00  0.000E+00  0.000E+00  1.08421E+03  1.791E+00  2.181E+01  1.309E-01  1.597E+00
   1    3    4     1     4    9.7166E+01  5.7859E-01   9.6588E+01  0.000E+00  0.000E+00  0.000E+00  1.07920E+03  1.789E+00  2.177E+01  1.208E-01  1.596E+00
   1    4    5     2     1    9.4588E+01  4.4299E-01   9.4145E+01  0.000E+00  0.000E+00  0.000E+00  1.07461E+03  2.679E+00  1.200E+01  7.800E-02  1.893E+00
   1    5    6     2     2    9.4145E+01  3.4036E-01   9.3805E+01  0.000E+00  0.000E+00  0.000E+00  1.06918E+03  2.673E+00  1.200E+01  6.000E-02  1.891E+00
   1    6    6     2     3    9.3805E+01  3.4001E-01   9.3465E+01  0.000E+00  0.000E+00  0.000E+00  1.06446E+03  2.667E+00  1.200E+01  6.000E-02  1.889E+00
   1    7    6     2     4    9.3465E+01  3.3967E-01   9.3125E+01  0.000E+00  0.000E+00  0.000E+00  1.05974E+03  2.661E+00  1.200E+01  6.000E-02  1.887E+00
   1    8    6     2     5    9.3125E+01  3.3932E-01   9.2786E+01  0.000E+00  0.000E+00  0.000E+00  1.05501E+03  2.655E+00  1.200E+01  6.000E-02  1.885E+00
   1    3    5     3     1    2.0000E+00  2.8252E-01   1.7175E+00  0.000E+00  0.000E+00  0.000E+00  1.07555E+03  1.909E+00  9.636E+00  7.227E-02  1.955E+00
   1    3    6     3     2    1.7175E+00  2.4905E-01   1.4684E+00  0.000E+00  0.000E+00  0.000E+00  1.07264E+03  1.727E+00  8.909E+00  6.682E-02  1.864E+00
   1    3    7     3     3    1.4684E+00  1.9718E-01   1.2712E+00  0.000E+00  0.000E+00  0.000E+00  1.06987E+03  1.555E+00  8.218E+00  5.547E-02  1.777E+00
   1    4    8     3     4    1.2712E+00  2.2567E-01   1.0456E+00  0.000E+00  0.000E+00  0.000E+00  1.06682E+03  1.364E+00  7.455E+00  6.709E-02  1.682E+00
   1    5    8     3     5    1.0456E+00  1.5790E-01   8.8768E-01  0.000E+00  0.000E+00  0.000E+00  1.06362E+03  1.164E+00  6.655E+00  4.991E-02  1.582E+00
   1    6    8     3     6    8.8768E-01  5.5980E-02   8.3170E-01  0.000E+00  0.000E+00  0.000E+00  1.06158E+03  1.036E+00  6.145E+00  1.844E-02  1.518E+00
   1    5   10     4     1    1.0000E+01  9.0919E-02   9.9091E+00  0.000E+00  0.000E+00  0.000E+00  1.07836E+03  6.368E-01  1.000E+01  2.500E-02  1.212E+00
   1    5    9     4     2    9.9091E+00  1.8158E-01   9.7275E+00  0.000E+00  0.000E+00  0.000E+00  1.07154E+03  6.315E-01  1.000E+01  5.000E-02  1.211E+00
   1    6    8     4     3    9.7275E+00  1.2689E-01   9.6006E+00  0.000E+00  0.000E+00  0.000E+00  1.06381E+03  6.256E-01  1.000E+01  3.500E-02  1.209E+00
   1    6    8     5     1    1.0432E+01  2.2686E-01   1.0205E+01  0.000E+00  0.000E+00  0.000E+00  1.05868E+03  6.790E-01  1.542E+01  6.166E-02  1.226E+00
   1    7    7     5     2    1.0205E+01  2.7894E-01   9.9265E+00  0.000E+00  0.000E+00  0.000E+00  1.05417E+03  6.732E-01  1.519E+01  7.594E-02  1.224E+00
   1    8    7     5     3    9.9265E+00  1.9221E-01   9.7343E+00  0.000E+00  0.000E+00  0.000E+00  1.04992E+03  6.676E-01  1.497E+01  5.241E-02  1.223E+00
   1    8    6     5     4    9.7343E+00  1.3577E-01   9.5985E+00  0.000E+00  0.000E+00  0.000E+00  1.04691E+03  6.637E-01  1.482E+01  3.706E-02  1.221E+00
   1    9    6     6     1    1.0238E+02  3.5054E-01   1.0203E+02  0.000E+00  0.000E+00  0.000E+00  1.04557E+03  2.842E+00  1.200E+01  6.000E-02  1.947E+00
   1   10    7     6     2    1.0203E+02  3.5018E-01   1.0168E+02  0.000E+00  0.000E+00  0.000E+00  1.04102E+03  2.836E+00  1.200E+01  6.000E-02  1.945E+00
   1   11    7     6     3    1.0168E+02  3.4983E-01   1.0133E+02  0.000E+00  0.000E+00  0.000E+00  1.03647E+03  2.831E+00  1.200E+01  6.000E-02  1.944E+00
   1   12    7     6     4    1.0133E+02  3.4948E-01   1.0098E+02  0.000E+00  0.000E+00  0.000E+00  1.03192E+03  2.825E+00  1.200E+01  6.000E-02  1.942E+00
   1   13    7     6     5    1.0098E+02  2.7773E-02   1.0096E+02  0.000E+00  0.000E+00  0.000E+00  1.02873E+03  2.822E+00  1.200E+01  2.400E-02  3.857E-01
   1   14    9     7     1    1.5000E+02  1.1626E+00   1.4884E+02  0.000E+00  0.000E+00  0.000E+00  1.03987E+03  2.288E+00  5.530E+01  5.593E-01  6.929E-01
   1   13    8     7     2    1.4884E+02  1.5863E+00   1.4725E+02  0.000E+00  0.000E+00  0.000E+00  1.03478E+03  2.281E+00  5.526E+01  6.149E-01  8.600E-01
   1   13    7     7     3    1.4725E+02  1.1839E+00   1.4607E+02  0.000E+00  0.000E+00  0.000E+00  1.02969E+03  2.273E+00  5.523E+01  5.586E-01  7.065E-01
   1   13    6     8     1    2.4702E+02  9.6827E-01   2.4606E+02  0.000E+00  0.000E+00  0.000E+00  1.02527E+03  3.394E+00  4.921E+01  5.015E-01  6.436E-01
   1   13    5     8     2    2.4606E+02  1.9946E-01   2.4586E+02  0.000E+00  0.000E+00  0.000E+00  1.01902E+03  3.391E+00  4.917E+01  5.010E-01  1.327E-01
   1   13    4     8     3    2.4586E+02 -1.9335E+00   2.4779E+02  0.000E+00  0.000E+00  0.000E+00  1.01277E+03  3.395E+00  4.923E+01  5.017E+00 -1.285E-01
   1   13    3     8     4    2.4779E+02 -2.9836E+00   2.5077E+02  0.000E+00  0.000E+00  0.000E+00  1.00653E+03  3.408E+00  4.941E+01  5.036E+00 -1.975E-01
   1   13    2     8     5    2.5077E+02 -1.8797E+00   2.5265E+02  0.000E+00  0.000E+00  0.000E+00  1.00030E+03  3.420E+00  4.959E+01  5.054E+00 -1.240E-01
   1   13    1     8     6    2.5265E+02 -1.2275E+00   2.5388E+02  0.000E+00  0.000E+00  0.000E+00  9.95303E+02  3.428E+00  4.971E+01  3.039E+00 -1.346E-01
   1    6    8     9     1    5.9116E-07  0.0000E+00   5.9116E-07  0.000E+00  0.000E+00  0.000E+00  1.07850E+03  2.312E-05  4.000E+00  0.000E+00  1.000E+00



 UBDSV3 SAVING "     NETRECHARGE" ON UNIT 100 AT TIME STEP     5, STRESS PERIOD   7
 UBDSV3 SAVING "    NETDISCHARGE" ON UNIT 101 AT TIME STEP     5, STRESS PERIOD   7
 UBDSV3 SAVING "           GW ET" ON UNIT  61 AT TIME STEP     5, STRESS PERIOD   7
 UBDSV3 SAVING "    UZF RECHARGE" ON UNIT  61 AT TIME STEP     5, STRESS PERIOD   7
 UBDSV3 SAVING " SURFACE LEAKAGE" ON UNIT  61 AT TIME STEP     5, STRESS PERIOD   7
 UBDSV3 SAVING "       HORT+DUNN" ON UNIT  61 AT TIME STEP     5, STRESS PERIOD   7
 UBDSV3 SAVING "  STORAGE CHANGE" ON UNIT  61 AT TIME STEP     5, STRESS PERIOD   7


UNSATURATED ZONE PACKAGE VOLUMETRIC BUDGET FOR  TIME STEP     5 STRESS PERIOD    7
  ------------------------------------------------------------------------------



     CUMULATIVE VOLUMES      L**3       RATES FOR THIS TIME STEP      L**3/T
     ------------------                 ------------------------

           IN:                                      IN:
           ---                                      ---
        INFILTRATION =      183082.7016          INFILTRATION =           0.0000

          OUT:                                     OUT:
          ----                                     ----
              UZF ET =   150779146.0247                UZF ET =          84.0000
        UZF RECHARGE =   357944794.5946          UZF RECHARGE =          25.0486

            IN - OUT =  -508540857.9177              IN - OUT =        -109.0486

          STORAGE:                                 STORAGE:
          --------                                 --------
      STORAGE CHANGE =  -508519023.5465        STORAGE CHANGE =        -109.0470

 PERCENT DISCREPANCY IS DIFFERENCE BETWEEN IN-OUT MINUS CHANGE IN STORAGE
 DIVIDED BY THE AVERAGE OF IN AND OUT TIMES 100

 PERCENT DISCREPANCY =          -0.00     PERCENT DISCREPANCY =          -0.00






1
  VOLUMETRIC BUDGET FOR ENTIRE MODEL AT END OF TIME STEP    5, STRESS PERIOD   7
  ------------------------------------------------------------------------------

     CUMULATIVE VOLUMES      L**3       RATES FOR THIS TIME STEP      L**3/T
     ------------------                 ------------------------

           IN:                                      IN:
           ---                                      ---
             STORAGE     =     5071828.0000               STORAGE     =           0.1799
       CONSTANT HEAD     =           0.0000         CONSTANT HEAD     =           0.0000
               WELLS     =           0.0000                 WELLS     =           0.0000
     HEAD DEP BOUNDS     =     3800487.2500       HEAD DEP BOUNDS     =           0.2740
      STREAM LEAKAGE     =   155115520.0000        STREAM LEAKAGE     =          13.1443
        UZF RECHARGE     =   357944768.0000          UZF RECHARGE     =          25.0486
               GW ET     =           0.0000                 GW ET     =           0.0000
     SURFACE LEAKAGE     =           0.0000       SURFACE LEAKAGE     =           0.0000
    SUPPLEMENTARY WELLS  =           0.0000      SUPPLEMENTARY WELLS  =           0.0000

                TOTAL IN =   521932608.0000                  TOTAL IN =          38.6468

          OUT:                                     OUT:
          ----                                     ----
             STORAGE     =   358966592.0000               STORAGE     =          27.3255
       CONSTANT HEAD     =           0.0000         CONSTANT HEAD     =           0.0000
               WELLS     =           0.0000                 WELLS     =           0.0000
     HEAD DEP BOUNDS     =     3993287.7500       HEAD DEP BOUNDS     =           0.2929
      STREAM LEAKAGE     =   154794400.0000        STREAM LEAKAGE     =           8.0244
        UZF RECHARGE     =           0.0000          UZF RECHARGE     =           0.0000
               GW ET     =     4082291.0000                 GW ET     =           3.0000
     SURFACE LEAKAGE     =           0.0000       SURFACE LEAKAGE     =           0.0000
    SUPPLEMENTARY WELLS  =       31277.0547      SUPPLEMENTARY WELLS  =       5.2547E-08

               TOTAL OUT =   521867840.0000                 TOTAL OUT =          38.6427

                IN - OUT =       64768.0000                  IN - OUT =       4.0932E-03

     PERCENT DISCREPANCY =           0.01         PERCENT DISCREPANCY =           0.01






         TIME SUMMARY AT END OF TIME STEP    5 IN STRESS PERIOD    7
                    SECONDS     MINUTES      HOURS       DAYS        YEARS
                    -----------------------------------------------------------
   TIME STEP LENGTH  87600.      1460.0      24.333      1.0139     2.77588E-03
 STRESS PERIOD TIME 4.38000E+05  7300.0      121.67      5.0694     1.38794E-02
         TOTAL TIME 1.36644E+07 2.27740E+05  3795.7      158.15     0.43300    
1
 
 SOLVING FOR HEAD 
                                                   Max.-Head-Change                         Max.-Flux-Residual
  Residual-Control   Outer-Iter.   Inner-Iter.     Column Row Layer    Maximum-Head-Change  Column Row Layer    Maximum-Flux-Residual          L2-NORM 
          0                 1           2             2   13     1       0.1176456381E-01       2   13    1         0.6724213098E+00      0.2029731969E+01
          0                 2           2             1    2     1       0.2314708614E-02       2    2    1         0.1027082162E+00      0.4672772672E+00
          0                 3           2             1    2     1       0.1039885717E-02       1    2    1         0.2701983888E-01      0.1612632404E+00
          0                 4           2             1    2     1       0.4669454784E-03       1    2    1         0.1213656726E-01      0.6890354260E-01
          0                 5           2             1    2     1       0.2096359996E-03       1    2    1         0.5449377945E-02      0.3063371355E-01
          0                 6           1             1    2     1       0.9410965769E-04       1    2    1         0.2446443466E-02      0.1370169319E-01
          0                 7           1             1    2     1       0.4224646392E-04       1    2    1         0.1098244618E-02      0.6134250521E-02
          0                 8           1             1    2     1       0.1896451804E-04       1    2    1         0.4930075051E-03      0.2746825319E-02
          0                 9           1             1    2     1       0.8513171895E-05       1    2    1         0.2213116645E-03      0.1230077921E-02

    ------------------------------------------------
       NWT REQUIRED            9 OUTER ITERATIONS 
       AND A TOTAL OF         14 INNER ITERATIONS.
    ------------------------------------------------

 NO OUTPUT CONTROL FOR STRESS PERIOD    7   TIME STEP    6
 
 SOLVING FOR HEAD 
                                                   Max.-Head-Change                         Max.-Flux-Residual
  Residual-Control   Outer-Iter.   Inner-Iter.     Column Row Layer    Maximum-Head-Change  Column Row Layer    Maximum-Flux-Residual          L2-NORM 
          0                 1           2             2    2     1       0.1128925346E-01       2   13    1         0.6043323639E+00      0.1991072833E+01
          0                 2           2             1    2     1       0.2317302895E-02       2    2    1         0.1022501534E+00      0.4685455699E+00
          0                 3           2             1    2     1       0.1041047642E-02       1    2    1         0.2705009107E-01      0.1612400536E+00
          0                 4           2             1    2     1       0.4674664452E-03       1    2    1         0.1215012200E-01      0.6887964898E-01
          0                 5           2             1    2     1       0.2098696806E-03       1    2    1         0.5455456360E-02      0.3062265829E-01
          0                 6           1             1    2     1       0.9421449248E-04       1    2    1         0.2449170110E-02      0.1369655144E-01
          0                 7           1             1    2     1       0.4229349780E-04       1    2    1         0.1099467879E-02      0.6131857229E-02
          0                 8           1             1    2     1       0.1898562066E-04       1    2    1         0.4935563288E-03      0.2745713996E-02
          0                 9           1             1    2     1       0.8522639848E-05       1    2    1         0.2215578956E-03      0.1229564190E-02

    ------------------------------------------------
       NWT REQUIRED            9 OUTER ITERATIONS 
       AND A TOTAL OF         14 INNER ITERATIONS.
    ------------------------------------------------

 NO OUTPUT CONTROL FOR STRESS PERIOD    7   TIME STEP    7
 
 SOLVING FOR HEAD 
                                                   Max.-Head-Change                         Max.-Flux-Residual
  Residual-Control   Outer-Iter.   Inner-Iter.     Column Row Layer    Maximum-Head-Change  Column Row Layer    Maximum-Flux-Residual          L2-NORM 
          0                 1           2             2    2     1       0.1123937241E-01       2    2    1         0.5857801394E+00      0.1958766046E+01
          0                 2           2             1    2     1       0.2319838736E-02       2    2    1         0.1018008919E+00      0.4698009984E+00
          0                 3           2             1    2     1       0.1042183363E-02       1    2    1         0.2707966161E-01      0.1612117085E+00
          0                 4           2             1    2     1       0.4679756538E-03       1    2    1         0.1216337102E-01      0.6885283221E-01
          0                 5           2             1    2     1       0.2100980823E-03       1    2    1         0.5461397558E-02      0.3061025584E-01
          0                 6           1             1    2     1       0.9431695773E-04       1    2    1         0.2451835163E-02      0.1369080908E-01
          0                 7           1             1    2     1       0.4233946821E-04       1    2    1         0.1100663488E-02      0.6129196972E-02
          0                 8           1             1    2     1       0.1900624507E-04       1    2    1         0.4940927305E-03      0.2744483781E-02
          0                 9           1             1    2     1       0.8531892957E-05       1    2    1         0.2217985557E-03      0.1228996033E-02

    ------------------------------------------------
       NWT REQUIRED            9 OUTER ITERATIONS 
       AND A TOTAL OF         14 INNER ITERATIONS.
    ------------------------------------------------

 NO OUTPUT CONTROL FOR STRESS PERIOD    7   TIME STEP    8
 
 SOLVING FOR HEAD 
                                                   Max.-Head-Change                         Max.-Flux-Residual
  Residual-Control   Outer-Iter.   Inner-Iter.     Column Row Layer    Maximum-Head-Change  Column Row Layer    Maximum-Flux-Residual          L2-NORM 
          0                 1           2             2    2     1       0.1119044738E-01       2    2    1         0.5832055008E+00      0.1931864544E+01
          0                 2           2             1    2     1       0.2322358276E-02       2    2    1         0.1013602287E+00      0.4714377904E+00
          0                 3           2             1    2     1       0.1043311801E-02       1    2    1         0.2710904225E-01      0.1610952761E+00
          0                 4           2             1    2     1       0.4684815969E-03       1    2    1         0.1217653508E-01      0.6882252339E-01
          0                 5           2             1    2     1       0.2103250193E-03       1    2    1         0.5467300658E-02      0.3059693953E-01
          0                 6           1             1    2     1       0.9441876468E-04       1    2    1         0.2454483110E-02      0.1368468232E-01
          0                 7           1             1    2     1       0.4238514249E-04       1    2    1         0.1101851418E-02      0.6126370540E-02
          0                 8           1             1    2     1       0.1902673717E-04       1    2    1         0.4946256928E-03      0.2743182003E-02
          0                 9           1             1    2     1       0.8541087039E-05       1    2    1         0.2220376717E-03      0.1228397445E-02

    ------------------------------------------------
       NWT REQUIRED            9 OUTER ITERATIONS 
       AND A TOTAL OF         14 INNER ITERATIONS.
    ------------------------------------------------

 NO OUTPUT CONTROL FOR STRESS PERIOD    7   TIME STEP    9
 
 SOLVING FOR HEAD 
                                                   Max.-Head-Change                         Max.-Flux-Residual
  Residual-Control   Outer-Iter.   Inner-Iter.     Column Row Layer    Maximum-Head-Change  Column Row Layer    Maximum-Flux-Residual          L2-NORM 
          0                 1           2             2    2     1       0.1114236816E-01       2    2    1         0.5806754992E+00      0.1909312137E+01
          0                 2           2             1    2     1       0.2324841259E-02       2    2    1         0.1009271710E+00      0.4761053982E+00
          0                 3           2             1    2     1       0.1044423856E-02       1    2    1         0.2713799658E-01      0.1610635845E+00
          0                 4           2             1    2     1       0.4689801905E-03       1    2    1         0.1218950802E-01      0.6879189749E-01
          0                 5           2             1    2     1       0.2105486573E-03       1    2    1         0.5473118000E-02      0.3058296401E-01
          0                 6           1             1    2     1       0.9451909047E-04       1    2    1         0.2457092557E-02      0.1367825484E-01
          0                 7           1             1    2     1       0.4243015247E-04       1    2    1         0.1103022066E-02      0.6123411466E-02
          0                 8           1             1    2     1       0.1904693038E-04       1    2    1         0.4951508883E-03      0.2741821349E-02
          0                 9           1             1    2     1       0.8550146811E-05       1    2    1         0.2222732995E-03      0.1227772818E-02

    ------------------------------------------------
       NWT REQUIRED            9 OUTER ITERATIONS 
       AND A TOTAL OF         14 INNER ITERATIONS.
    ------------------------------------------------

 OUTPUT CONTROL FOR STRESS PERIOD    7   TIME STEP   10
    PRINT BUDGET
    SAVE BUDGET
 UBUDSV SAVING "         STORAGE" ON UNIT102 AT TIME STEP    10, STRESS PERIOD    7
 UBUDSV SAVING "   CONSTANT HEAD" ON UNIT102 AT TIME STEP    10, STRESS PERIOD    7
 UBUDSV SAVING "FLOW RIGHT FACE " ON UNIT102 AT TIME STEP    10, STRESS PERIOD    7
 UBUDSV SAVING "FLOW FRONT FACE " ON UNIT102 AT TIME STEP    10, STRESS PERIOD    7

  HEAD DEP BOUNDS   PERIOD    7   STEP    10
 BOUNDARY      1   LAYER   1   ROW    13   COL     1   RATE   -0.293280    
 BOUNDARY      2   LAYER   1   ROW    14   COL     9   RATE    0.273910    



 STREAM LISTING     PERIOD      7   STEP       10

 LAYER ROW COL. STREAM  RCH.  FLOW INTO     FLOW TO   FLOW OUT OF   OVRLND.     DIRECT     STREAM       STREAM     STREAM     STREAM   STREAMBED  STREAMBED
                SEG.NO.  NO.  STRM. RCH.    AQUIFER    STRM. RCH.    RUNOFF     PRECIP       ET          HEAD       DEPTH      WIDTH   CONDCTNC.   GRADIENT

   1    1    1     1     1    9.9000E+01  4.7281E-01   9.8527E+01  0.000E+00  0.000E+00  0.000E+00  1.09484E+03  1.796E+00  2.191E+01  9.859E-02  1.599E+00
   1    2    2     1     2    9.8527E+01  7.3365E-01   9.7794E+01  0.000E+00  0.000E+00  0.000E+00  1.08985E+03  1.793E+00  2.187E+01  1.531E-01  1.598E+00
   1    3    3     1     3    9.7794E+01  6.2707E-01   9.7166E+01  0.000E+00  0.000E+00  0.000E+00  1.08421E+03  1.791E+00  2.181E+01  1.309E-01  1.597E+00
   1    3    4     1     4    9.7166E+01  5.7859E-01   9.6588E+01  0.000E+00  0.000E+00  0.000E+00  1.07920E+03  1.789E+00  2.177E+01  1.208E-01  1.596E+00
   1    4    5     2     1    9.4588E+01  4.4299E-01   9.4145E+01  0.000E+00  0.000E+00  0.000E+00  1.07461E+03  2.679E+00  1.200E+01  7.800E-02  1.893E+00
   1    5    6     2     2    9.4145E+01  3.4036E-01   9.3805E+01  0.000E+00  0.000E+00  0.000E+00  1.06918E+03  2.673E+00  1.200E+01  6.000E-02  1.891E+00
   1    6    6     2     3    9.3805E+01  3.4001E-01   9.3465E+01  0.000E+00  0.000E+00  0.000E+00  1.06446E+03  2.667E+00  1.200E+01  6.000E-02  1.889E+00
   1    7    6     2     4    9.3465E+01  3.3967E-01   9.3125E+01  0.000E+00  0.000E+00  0.000E+00  1.05974E+03  2.661E+00  1.200E+01  6.000E-02  1.887E+00
   1    8    6     2     5    9.3125E+01  3.3932E-01   9.2786E+01  0.000E+00  0.000E+00  0.000E+00  1.05501E+03  2.655E+00  1.200E+01  6.000E-02  1.885E+00
   1    3    5     3     1    2.0000E+00  2.8252E-01   1.7175E+00  0.000E+00  0.000E+00  0.000E+00  1.07555E+03  1.909E+00  9.636E+00  7.227E-02  1.955E+00
   1    3    6     3     2    1.7175E+00  2.4905E-01   1.4684E+00  0.000E+00  0.000E+00  0.000E+00  1.07264E+03  1.727E+00  8.909E+00  6.682E-02  1.864E+00
   1    3    7     3     3    1.4684E+00  1.9718E-01   1.2712E+00  0.000E+00  0.000E+00  0.000E+00  1.06987E+03  1.555E+00  8.218E+00  5.547E-02  1.777E+00
   1    4    8     3     4    1.2712E+00  2.2567E-01   1.0456E+00  0.000E+00  0.000E+00  0.000E+00  1.06682E+03  1.364E+00  7.455E+00  6.709E-02  1.682E+00
   1    5    8     3     5    1.0456E+00  1.5790E-01   8.8768E-01  0.000E+00  0.000E+00  0.000E+00  1.06362E+03  1.164E+00  6.655E+00  4.991E-02  1.582E+00
   1    6    8     3     6    8.8768E-01  5.5980E-02   8.3170E-01  0.000E+00  0.000E+00  0.000E+00  1.06158E+03  1.036E+00  6.145E+00  1.844E-02  1.518E+00
   1    5   10     4     1    1.0000E+01  9.0919E-02   9.9091E+00  0.000E+00  0.000E+00  0.000E+00  1.07836E+03  6.368E-01  1.000E+01  2.500E-02  1.212E+00
   1    5    9     4     2    9.9091E+00  1.8158E-01   9.7275E+00  0.000E+00  0.000E+00  0.000E+00  1.07154E+03  6.315E-01  1.000E+01  5.000E-02  1.211E+00
   1    6    8     4     3    9.7275E+00  1.2689E-01   9.6006E+00  0.000E+00  0.000E+00  0.000E+00  1.06381E+03  6.256E-01  1.000E+01  3.500E-02  1.209E+00
   1    6    8     5     1    1.0432E+01  2.2686E-01   1.0205E+01  0.000E+00  0.000E+00  0.000E+00  1.05868E+03  6.790E-01  1.542E+01  6.166E-02  1.226E+00
   1    7    7     5     2    1.0205E+01  2.7894E-01   9.9265E+00  0.000E+00  0.000E+00  0.000E+00  1.05417E+03  6.732E-01  1.519E+01  7.594E-02  1.224E+00
   1    8    7     5     3    9.9265E+00  1.9221E-01   9.7343E+00  0.000E+00  0.000E+00  0.000E+00  1.04992E+03  6.676E-01  1.497E+01  5.241E-02  1.223E+00
   1    8    6     5     4    9.7343E+00  1.3577E-01   9.5985E+00  0.000E+00  0.000E+00  0.000E+00  1.04691E+03  6.637E-01  1.482E+01  3.706E-02  1.221E+00
   1    9    6     6     1    1.0238E+02  3.5054E-01   1.0203E+02  0.000E+00  0.000E+00  0.000E+00  1.04557E+03  2.842E+00  1.200E+01  6.000E-02  1.947E+00
   1   10    7     6     2    1.0203E+02  3.5018E-01   1.0168E+02  0.000E+00  0.000E+00  0.000E+00  1.04102E+03  2.836E+00  1.200E+01  6.000E-02  1.945E+00
   1   11    7     6     3    1.0168E+02  3.4983E-01   1.0133E+02  0.000E+00  0.000E+00  0.000E+00  1.03647E+03  2.831E+00  1.200E+01  6.000E-02  1.944E+00
   1   12    7     6     4    1.0133E+02  3.4948E-01   1.0098E+02  0.000E+00  0.000E+00  0.000E+00  1.03192E+03  2.825E+00  1.200E+01  6.000E-02  1.942E+00
   1   13    7     6     5    1.0098E+02  2.7517E-02   1.0096E+02  0.000E+00  0.000E+00  0.000E+00  1.02873E+03  2.822E+00  1.200E+01  2.400E-02  3.822E-01
   1   14    9     7     1    1.5000E+02  1.1617E+00   1.4884E+02  0.000E+00  0.000E+00  0.000E+00  1.03987E+03  2.288E+00  5.530E+01  5.593E-01  6.923E-01
   1   13    8     7     2    1.4884E+02  1.5839E+00   1.4725E+02  0.000E+00  0.000E+00  0.000E+00  1.03478E+03  2.281E+00  5.526E+01  6.149E-01  8.587E-01
   1   13    7     7     3    1.4725E+02  1.1780E+00   1.4608E+02  0.000E+00  0.000E+00  0.000E+00  1.02969E+03  2.274E+00  5.523E+01  5.586E-01  7.029E-01
   1   13    6     8     1    2.4703E+02  9.5873E-01   2.4607E+02  0.000E+00  0.000E+00  0.000E+00  1.02527E+03  3.394E+00  4.921E+01  5.015E-01  6.373E-01
   1   13    5     8     2    2.4607E+02  2.0527E-01   2.4587E+02  0.000E+00  0.000E+00  0.000E+00  1.01902E+03  3.391E+00  4.917E+01  5.010E-01  1.366E-01
   1   13    4     8     3    2.4587E+02 -2.0761E+00   2.4794E+02  0.000E+00  0.000E+00  0.000E+00  1.01277E+03  3.396E+00  4.924E+01  5.017E+00 -1.379E-01
   1   13    3     8     4    2.4794E+02 -3.1308E+00   2.5108E+02  0.000E+00  0.000E+00  0.000E+00  1.00653E+03  3.409E+00  4.943E+01  5.037E+00 -2.072E-01
   1   13    2     8     5    2.5108E+02 -2.1369E+00   2.5321E+02  0.000E+00  0.000E+00  0.000E+00  1.00030E+03  3.423E+00  4.963E+01  5.057E+00 -1.409E-01
   1   13    1     8     6    2.5321E+02 -1.2525E+00   2.5447E+02  0.000E+00  0.000E+00  0.000E+00  9.95306E+02  3.431E+00  4.975E+01  3.042E+00 -1.373E-01
   1    6    8     9     1    5.9116E-07  0.0000E+00   5.9116E-07  0.000E+00  0.000E+00  0.000E+00  1.07850E+03  2.312E-05  4.000E+00  0.000E+00  1.000E+00



 UBDSV3 SAVING "     NETRECHARGE" ON UNIT 100 AT TIME STEP    10, STRESS PERIOD   7
 UBDSV3 SAVING "    NETDISCHARGE" ON UNIT 101 AT TIME STEP    10, STRESS PERIOD   7
 UBDSV3 SAVING "           GW ET" ON UNIT  61 AT TIME STEP    10, STRESS PERIOD   7
 UBDSV3 SAVING "    UZF RECHARGE" ON UNIT  61 AT TIME STEP    10, STRESS PERIOD   7
 UBDSV3 SAVING " SURFACE LEAKAGE" ON UNIT  61 AT TIME STEP    10, STRESS PERIOD   7
 UBDSV3 SAVING "       HORT+DUNN" ON UNIT  61 AT TIME STEP    10, STRESS PERIOD   7
 UBDSV3 SAVING "  STORAGE CHANGE" ON UNIT  61 AT TIME STEP    10, STRESS PERIOD   7


UNSATURATED ZONE PACKAGE VOLUMETRIC BUDGET FOR  TIME STEP    10 STRESS PERIOD    7
  ------------------------------------------------------------------------------



     CUMULATIVE VOLUMES      L**3       RATES FOR THIS TIME STEP      L**3/T
     ------------------                 ------------------------

           IN:                                      IN:
           ---                                      ---
        INFILTRATION =      183082.9778          INFILTRATION =           0.0000

          OUT:                                     OUT:
          ----                                     ----
              UZF ET =   187571128.6419                UZF ET =          83.9998
        UZF RECHARGE =   368908123.7178          UZF RECHARGE =          25.0357

            IN - OUT =  -556296169.3818              IN - OUT =        -109.0355

          STORAGE:                                 STORAGE:
          --------                                 --------
      STORAGE CHANGE =  -556273435.2069        STORAGE CHANGE =        -109.0317

 PERCENT DISCREPANCY IS DIFFERENCE BETWEEN IN-OUT MINUS CHANGE IN STORAGE
 DIVIDED BY THE AVERAGE OF IN AND OUT TIMES 100

 PERCENT DISCREPANCY =          -0.00     PERCENT DISCREPANCY =          -0.00






1
  VOLUMETRIC BUDGET FOR ENTIRE MODEL AT END OF TIME STEP   10, STRESS PERIOD   7
  ------------------------------------------------------------------------------

     CUMULATIVE VOLUMES      L**3       RATES FOR THIS TIME STEP      L**3/T
     ------------------                 ------------------------

           IN:                                      IN:
           ---                                      ---
             STORAGE     =     5129397.5000               STORAGE     =           0.1034
       CONSTANT HEAD     =           0.0000         CONSTANT HEAD     =           0.0000
               WELLS     =           0.0000                 WELLS     =           0.0000
     HEAD DEP BOUNDS     =     3920470.5000       HEAD DEP BOUNDS     =           0.2739
      STREAM LEAKAGE     =   160869296.0000        STREAM LEAKAGE     =          13.1311
        UZF RECHARGE     =   368908128.0000          UZF RECHARGE     =          25.0357
               GW ET     =           0.0000                 GW ET     =           0.0000
     SURFACE LEAKAGE     =           0.0000       SURFACE LEAKAGE     =           0.0000
    SUPPLEMENTARY WELLS  =           0.0000      SUPPLEMENTARY WELLS  =           0.0000

                TOTAL IN =   538827264.0000                  TOTAL IN =          38.5440

          OUT:                                     OUT:
          ----                                     ----
             STORAGE     =   370743744.0000               STORAGE     =          26.6501
       CONSTANT HEAD     =           0.0000         CONSTANT HEAD     =           0.0000
               WELLS     =           0.0000                 WELLS     =           0.0000
     HEAD DEP BOUNDS     =     4121673.2500       HEAD DEP BOUNDS     =           0.2933
      STREAM LEAKAGE     =   158467664.0000        STREAM LEAKAGE     =           8.5964
        UZF RECHARGE     =           0.0000          UZF RECHARGE     =           0.0000
               GW ET     =     5396304.0000                 GW ET     =           3.0001
     SURFACE LEAKAGE     =           0.0000       SURFACE LEAKAGE     =           0.0000
    SUPPLEMENTARY WELLS  =       31277.0742      SUPPLEMENTARY WELLS  =       5.2547E-08

               TOTAL OUT =   538760640.0000                 TOTAL OUT =          38.5399

                IN - OUT =       66624.0000                  IN - OUT =       4.0817E-03

     PERCENT DISCREPANCY =           0.01         PERCENT DISCREPANCY =           0.01






         TIME SUMMARY AT END OF TIME STEP   10 IN STRESS PERIOD    7
                    SECONDS     MINUTES      HOURS       DAYS        YEARS
                    -----------------------------------------------------------
   TIME STEP LENGTH  87600.      1460.0      24.333      1.0139     2.77588E-03
 STRESS PERIOD TIME 8.76000E+05  14600.      243.33      10.139     2.77588E-02
         TOTAL TIME 1.41024E+07 2.35040E+05  3917.3      163.22     0.44688    
1
 
 SOLVING FOR HEAD 
                                                   Max.-Head-Change                         Max.-Flux-Residual
  Residual-Control   Outer-Iter.   Inner-Iter.     Column Row Layer    Maximum-Head-Change  Column Row Layer    Maximum-Flux-Residual          L2-NORM 
          0                 1           2             2    2     1       0.1109511507E-01       2    2    1         0.5781890939E+00      0.1890197936E+01
          0                 2           2             1    2     1       0.2327267457E-02       2    2    1         0.1005015419E+00      0.4765538082E+00
          0                 3           2             1    2     1       0.1045510447E-02       1    2    1         0.2716628852E-01      0.1610104772E+00
          0                 4           2             1    2     1       0.4694673558E-03       1    2    1         0.1220218384E-01      0.6875853510E-01
          0                 5           2             1    2     1       0.2107671651E-03       1    2    1         0.5478801978E-02      0.3056778566E-01
          0                 6           1             1    2     1       0.9461711299E-04       1    2    1         0.2459642134E-02      0.1367129605E-01
          0                 7           1             1    2     1       0.4247412800E-04       1    2    1         0.1104165829E-02      0.6120218882E-02
          0                 8           1             1    2     1       0.1906665939E-04       1    2    1         0.4956640164E-03      0.2740358490E-02
          0                 9           1             1    2     1       0.8558997991E-05       1    2    1         0.2225035095E-03      0.1227103557E-02

    ------------------------------------------------
       NWT REQUIRED            9 OUTER ITERATIONS 
       AND A TOTAL OF         14 INNER ITERATIONS.
    ------------------------------------------------

 NO OUTPUT CONTROL FOR STRESS PERIOD    7   TIME STEP   11
 
 SOLVING FOR HEAD 
                                                   Max.-Head-Change                         Max.-Flux-Residual
  Residual-Control   Outer-Iter.   Inner-Iter.     Column Row Layer    Maximum-Head-Change  Column Row Layer    Maximum-Flux-Residual          L2-NORM 
          0                 1           2             2    2     1       0.1104884641E-01       2    2    1         0.5757545365E+00      0.1874447149E+01
          0                 2           2             1    2     1       0.2329679069E-02       2    2    1         0.1000847753E+00      0.4770161407E+00
          0                 3           2             1    2     1       0.1046590525E-02       1    2    1         0.2719441058E-01      0.1609543849E+00
          0                 4           2             1    2     1       0.4699516028E-03       1    2    1         0.1221478370E-01      0.6872311179E-01
          0                 5           2             1    2     1       0.2109843633E-03       1    2    1         0.5484451904E-02      0.3055166760E-01
          0                 6           1             1    2     1       0.9471454750E-04       1    2    1         0.2462176427E-02      0.1366392406E-01
          0                 7           1             1    2     1       0.4251783965E-04       1    2    1         0.1105302735E-02      0.6116844144E-02
          0                 8           1             1    2     1       0.1908626985E-04       1    2    1         0.4961740634E-03      0.2738815096E-02
          0                 9           1             1    2     1       0.8567796147E-05       1    2    1         0.2227323348E-03      0.1226398786E-02

    ------------------------------------------------
       NWT REQUIRED            9 OUTER ITERATIONS 
       AND A TOTAL OF         14 INNER ITERATIONS.
    ------------------------------------------------

 NO OUTPUT CONTROL FOR STRESS PERIOD    7   TIME STEP   12
 
 SOLVING FOR HEAD 
                                                   Max.-Head-Change                         Max.-Flux-Residual
  Residual-Control   Outer-Iter.   Inner-Iter.     Column Row Layer    Maximum-Head-Change  Column Row Layer    Maximum-Flux-Residual          L2-NORM 
          0                 1           2             2    2     1       0.1100327451E-01       2    2    1         0.5733568490E+00      0.1861423712E+01
          0                 2           2             1    2     1       0.2332055713E-02       4   13    1         0.1000490834E+00      0.4774489713E+00
          0                 3           2             1    2     1       0.1047654929E-02       1    2    1         0.2722212482E-01      0.1608927521E+00
          0                 4           2             1    2     1       0.4704288162E-03       1    2    1         0.1222720068E-01      0.6868552053E-01
          0                 5           2             1    2     1       0.2111984043E-03       1    2    1         0.5490019765E-02      0.3053460320E-01
          0                 6           1             1    2     1       0.9481056463E-04       1    2    1         0.2464673883E-02      0.1365613791E-01
          0                 7           1             1    2     1       0.4256091478E-04       1    2    1         0.1106423102E-02      0.6113288179E-02
          0                 8           1             1    2     1       0.1910559493E-04       1    2    1         0.4966766866E-03      0.2737192647E-02
          0                 9           1             1    2     1       0.8576465746E-05       1    2    1         0.2229578258E-03      0.1225658965E-02

    ------------------------------------------------
       NWT REQUIRED            9 OUTER ITERATIONS 
       AND A TOTAL OF         14 INNER ITERATIONS.
    ------------------------------------------------

 NO OUTPUT CONTROL FOR STRESS PERIOD    7   TIME STEP   13
 
 SOLVING FOR HEAD 
                                                   Max.-Head-Change                         Max.-Flux-Residual
  Residual-Control   Outer-Iter.   Inner-Iter.     Column Row Layer    Maximum-Head-Change  Column Row Layer    Maximum-Flux-Residual          L2-NORM 
          0                 1           2             2    2     1       0.1095855982E-01       2    2    1         0.5710042929E+00      0.1850750169E+01
          0                 2           2             1    2     1       0.2334397938E-02       4   13    1         0.1019339122E+00      0.4778798621E+00
          0                 3           2             1    2     1       0.1048703910E-02       1    2    1         0.2724943769E-01      0.1608293975E+00
          0                 4           2             1    2     1       0.4708991105E-03       1    2    1         0.1223943774E-01      0.6864630769E-01
          0                 5           2             1    2     1       0.2114093394E-03       1    2    1         0.5495506882E-02      0.3051677531E-01
          0                 6           1             1    2     1       0.9490518764E-04       1    2    1         0.2467135091E-02      0.1364801186E-01
          0                 7           1             1    2     1       0.4260336388E-04       1    2    1         0.1107527190E-02      0.6109583574E-02
          0                 8           1             1    2     1       0.1912463838E-04       1    2    1         0.4971719990E-03      0.2735509117E-02
          0                 9           1             1    2     1       0.8585009539E-05       1    2    1         0.2231800377E-03      0.1224900990E-02

    ------------------------------------------------
       NWT REQUIRED            9 OUTER ITERATIONS 
       AND A TOTAL OF         14 INNER ITERATIONS.
    ------------------------------------------------

 NO OUTPUT CONTROL FOR STRESS PERIOD    7   TIME STEP   14
 
 SOLVING FOR HEAD 
                                                   Max.-Head-Change                         Max.-Flux-Residual
  Residual-Control   Outer-Iter.   Inner-Iter.     Column Row Layer    Maximum-Head-Change  Column Row Layer    Maximum-Flux-Residual          L2-NORM 
          0                 1           2             2    2     1       0.1091468312E-01       2    2    1         0.5686959771E+00      0.1841812055E+01
          0                 2           2             1    2     1       0.2336727063E-02       4   13    1         0.1036108339E+00      0.4782715723E+00
          0                 3           2             1    2     1       0.1049747042E-02       1    2    1         0.2727659798E-01      0.1607621981E+00
          0                 4           2             1    2     1       0.4713667836E-03       1    2    1         0.1225160657E-01      0.6860558473E-01
          0                 5           2             1    2     1       0.2116190983E-03       1    2    1         0.5500963412E-02      0.3049830547E-01
          0                 6           1             1    2     1       0.9499928241E-04       1    2    1         0.2469582573E-02      0.1363961048E-01
          0                 7           1             1    2     1       0.4264557562E-04       1    2    1         0.1108625115E-02      0.6105756938E-02
          0                 8           1             1    2     1       0.1914357579E-04       1    2    1         0.4976645471E-03      0.2733762852E-02
          0                 9           1             1    2     1       0.8593505061E-05       1    2    1         0.2234010023E-03      0.1224098552E-02

    ------------------------------------------------
       NWT REQUIRED            9 OUTER ITERATIONS 
       AND A TOTAL OF         14 INNER ITERATIONS.
    ------------------------------------------------

 OUTPUT CONTROL FOR STRESS PERIOD    7   TIME STEP   15
    PRINT BUDGET
    PRINT HEAD FOR ALL LAYERS
    SAVE HEAD FOR ALL LAYERS
    SAVE BUDGET
 UBUDSV SAVING "         STORAGE" ON UNIT102 AT TIME STEP    15, STRESS PERIOD    7
 UBUDSV SAVING "   CONSTANT HEAD" ON UNIT102 AT TIME STEP    15, STRESS PERIOD    7
 UBUDSV SAVING "FLOW RIGHT FACE " ON UNIT102 AT TIME STEP    15, STRESS PERIOD    7
 UBUDSV SAVING "FLOW FRONT FACE " ON UNIT102 AT TIME STEP    15, STRESS PERIOD    7

  HEAD DEP BOUNDS   PERIOD    7   STEP    15
 BOUNDARY      1   LAYER   1   ROW    13   COL     1   RATE   -0.293650    
 BOUNDARY      2   LAYER   1   ROW    14   COL     9   RATE    0.273852    



 STREAM LISTING     PERIOD      7   STEP       15

 LAYER ROW COL. STREAM  RCH.  FLOW INTO     FLOW TO   FLOW OUT OF   OVRLND.     DIRECT     STREAM       STREAM     STREAM     STREAM   STREAMBED  STREAMBED
                SEG.NO.  NO.  STRM. RCH.    AQUIFER    STRM. RCH.    RUNOFF     PRECIP       ET          HEAD       DEPTH      WIDTH   CONDCTNC.   GRADIENT

   1    1    1     1     1    9.9000E+01  4.7281E-01   9.8527E+01  0.000E+00  0.000E+00  0.000E+00  1.09484E+03  1.796E+00  2.191E+01  9.859E-02  1.599E+00
   1    2    2     1     2    9.8527E+01  7.3365E-01   9.7794E+01  0.000E+00  0.000E+00  0.000E+00  1.08985E+03  1.793E+00  2.187E+01  1.531E-01  1.598E+00
   1    3    3     1     3    9.7794E+01  6.2707E-01   9.7166E+01  0.000E+00  0.000E+00  0.000E+00  1.08421E+03  1.791E+00  2.181E+01  1.309E-01  1.597E+00
   1    3    4     1     4    9.7166E+01  5.7859E-01   9.6588E+01  0.000E+00  0.000E+00  0.000E+00  1.07920E+03  1.789E+00  2.177E+01  1.208E-01  1.596E+00
   1    4    5     2     1    9.4588E+01  4.4299E-01   9.4145E+01  0.000E+00  0.000E+00  0.000E+00  1.07461E+03  2.679E+00  1.200E+01  7.800E-02  1.893E+00
   1    5    6     2     2    9.4145E+01  3.4036E-01   9.3805E+01  0.000E+00  0.000E+00  0.000E+00  1.06918E+03  2.673E+00  1.200E+01  6.000E-02  1.891E+00
   1    6    6     2     3    9.3805E+01  3.4001E-01   9.3465E+01  0.000E+00  0.000E+00  0.000E+00  1.06446E+03  2.667E+00  1.200E+01  6.000E-02  1.889E+00
   1    7    6     2     4    9.3465E+01  3.3967E-01   9.3125E+01  0.000E+00  0.000E+00  0.000E+00  1.05974E+03  2.661E+00  1.200E+01  6.000E-02  1.887E+00
   1    8    6     2     5    9.3125E+01  3.3932E-01   9.2786E+01  0.000E+00  0.000E+00  0.000E+00  1.05501E+03  2.655E+00  1.200E+01  6.000E-02  1.885E+00
   1    3    5     3     1    2.0000E+00  2.8252E-01   1.7175E+00  0.000E+00  0.000E+00  0.000E+00  1.07555E+03  1.909E+00  9.636E+00  7.227E-02  1.955E+00
   1    3    6     3     2    1.7175E+00  2.4905E-01   1.4684E+00  0.000E+00  0.000E+00  0.000E+00  1.07264E+03  1.727E+00  8.909E+00  6.682E-02  1.864E+00
   1    3    7     3     3    1.4684E+00  1.9718E-01   1.2712E+00  0.000E+00  0.000E+00  0.000E+00  1.06987E+03  1.555E+00  8.218E+00  5.547E-02  1.777E+00
   1    4    8     3     4    1.2712E+00  2.2567E-01   1.0456E+00  0.000E+00  0.000E+00  0.000E+00  1.06682E+03  1.364E+00  7.455E+00  6.709E-02  1.682E+00
   1    5    8     3     5    1.0456E+00  1.5790E-01   8.8768E-01  0.000E+00  0.000E+00  0.000E+00  1.06362E+03  1.164E+00  6.655E+00  4.991E-02  1.582E+00
   1    6    8     3     6    8.8768E-01  5.5980E-02   8.3170E-01  0.000E+00  0.000E+00  0.000E+00  1.06158E+03  1.036E+00  6.145E+00  1.844E-02  1.518E+00
   1    5   10     4     1    1.0000E+01  9.0919E-02   9.9091E+00  0.000E+00  0.000E+00  0.000E+00  1.07836E+03  6.368E-01  1.000E+01  2.500E-02  1.212E+00
   1    5    9     4     2    9.9091E+00  1.8158E-01   9.7275E+00  0.000E+00  0.000E+00  0.000E+00  1.07154E+03  6.315E-01  1.000E+01  5.000E-02  1.211E+00
   1    6    8     4     3    9.7275E+00  1.2689E-01   9.6006E+00  0.000E+00  0.000E+00  0.000E+00  1.06381E+03  6.256E-01  1.000E+01  3.500E-02  1.209E+00
   1    6    8     5     1    1.0432E+01  2.2686E-01   1.0205E+01  0.000E+00  0.000E+00  0.000E+00  1.05868E+03  6.790E-01  1.542E+01  6.166E-02  1.226E+00
   1    7    7     5     2    1.0205E+01  2.7894E-01   9.9265E+00  0.000E+00  0.000E+00  0.000E+00  1.05417E+03  6.732E-01  1.519E+01  7.594E-02  1.224E+00
   1    8    7     5     3    9.9265E+00  1.9221E-01   9.7343E+00  0.000E+00  0.000E+00  0.000E+00  1.04992E+03  6.676E-01  1.497E+01  5.241E-02  1.223E+00
   1    8    6     5     4    9.7343E+00  1.3577E-01   9.5985E+00  0.000E+00  0.000E+00  0.000E+00  1.04691E+03  6.637E-01  1.482E+01  3.706E-02  1.221E+00
   1    9    6     6     1    1.0238E+02  3.5054E-01   1.0203E+02  0.000E+00  0.000E+00  0.000E+00  1.04557E+03  2.842E+00  1.200E+01  6.000E-02  1.947E+00
   1   10    7     6     2    1.0203E+02  3.5018E-01   1.0168E+02  0.000E+00  0.000E+00  0.000E+00  1.04102E+03  2.836E+00  1.200E+01  6.000E-02  1.945E+00
   1   11    7     6     3    1.0168E+02  3.4983E-01   1.0133E+02  0.000E+00  0.000E+00  0.000E+00  1.03647E+03  2.831E+00  1.200E+01  6.000E-02  1.944E+00
   1   12    7     6     4    1.0133E+02  3.4948E-01   1.0098E+02  0.000E+00  0.000E+00  0.000E+00  1.03192E+03  2.825E+00  1.200E+01  6.000E-02  1.942E+00
   1   13    7     6     5    1.0098E+02  2.7269E-02   1.0096E+02  0.000E+00  0.000E+00  0.000E+00  1.02873E+03  2.822E+00  1.200E+01  2.400E-02  3.787E-01
   1   14    9     7     1    1.5000E+02  1.1609E+00   1.4884E+02  0.000E+00  0.000E+00  0.000E+00  1.03987E+03  2.288E+00  5.530E+01  5.593E-01  6.918E-01
   1   13    8     7     2    1.4884E+02  1.5814E+00   1.4726E+02  0.000E+00  0.000E+00  0.000E+00  1.03478E+03  2.281E+00  5.526E+01  6.149E-01  8.573E-01
   1   13    7     7     3    1.4726E+02  1.1722E+00   1.4609E+02  0.000E+00  0.000E+00  0.000E+00  1.02969E+03  2.274E+00  5.523E+01  5.586E-01  6.995E-01
   1   13    6     8     1    2.4704E+02  9.5078E-01   2.4609E+02  0.000E+00  0.000E+00  0.000E+00  1.02527E+03  3.394E+00  4.921E+01  5.015E-01  6.320E-01
   1   13    5     8     2    2.4609E+02  2.0843E-01   2.4588E+02  0.000E+00  0.000E+00  0.000E+00  1.01902E+03  3.391E+00  4.917E+01  5.010E-01  1.387E-01
   1   13    4     8     3    2.4588E+02 -2.1617E+00   2.4804E+02  0.000E+00  0.000E+00  0.000E+00  1.01277E+03  3.396E+00  4.924E+01  5.018E+00 -1.436E-01
   1   13    3     8     4    2.4804E+02 -3.2292E+00   2.5127E+02  0.000E+00  0.000E+00  0.000E+00  1.00653E+03  3.410E+00  4.944E+01  5.038E+00 -2.136E-01
   1   13    2     8     5    2.5127E+02 -2.3028E+00   2.5358E+02  0.000E+00  0.000E+00  0.000E+00  1.00030E+03  3.424E+00  4.965E+01  5.059E+00 -1.517E-01
   1   13    1     8     6    2.5358E+02 -1.2771E+00   2.5485E+02  0.000E+00  0.000E+00  0.000E+00  9.95308E+02  3.433E+00  4.978E+01  3.044E+00 -1.399E-01
   1    6    8     9     1    5.9116E-07  0.0000E+00   5.9116E-07  0.000E+00  0.000E+00  0.000E+00  1.07850E+03  2.312E-05  4.000E+00  0.000E+00  1.000E+00



 UBDSV3 SAVING "     NETRECHARGE" ON UNIT 100 AT TIME STEP    15, STRESS PERIOD   7
 UBDSV3 SAVING "    NETDISCHARGE" ON UNIT 101 AT TIME STEP    15, STRESS PERIOD   7
 UBDSV3 SAVING "           GW ET" ON UNIT  61 AT TIME STEP    15, STRESS PERIOD   7
 UBDSV3 SAVING "    UZF RECHARGE" ON UNIT  61 AT TIME STEP    15, STRESS PERIOD   7
 UBDSV3 SAVING " SURFACE LEAKAGE" ON UNIT  61 AT TIME STEP    15, STRESS PERIOD   7
 UBDSV3 SAVING "       HORT+DUNN" ON UNIT  61 AT TIME STEP    15, STRESS PERIOD   7
 UBDSV3 SAVING "  STORAGE CHANGE" ON UNIT  61 AT TIME STEP    15, STRESS PERIOD   7


UNSATURATED ZONE PACKAGE VOLUMETRIC BUDGET FOR  TIME STEP    15 STRESS PERIOD    7
  ------------------------------------------------------------------------------



     CUMULATIVE VOLUMES      L**3       RATES FOR THIS TIME STEP      L**3/T
     ------------------                 ------------------------

           IN:                                      IN:
           ---                                      ---
        INFILTRATION =      183083.2540          INFILTRATION =           0.0000

          OUT:                                     OUT:
          ----                                     ----
              UZF ET =   224363086.5169                UZF ET =          83.9998
        UZF RECHARGE =   379855881.7914          UZF RECHARGE =          24.9688

            IN - OUT =  -604035885.0543              IN - OUT =        -108.9687

          STORAGE:                                 STORAGE:
          --------                                 --------
      STORAGE CHANGE =  -604011809.0082        STORAGE CHANGE =        -108.9660

 PERCENT DISCREPANCY IS DIFFERENCE BETWEEN IN-OUT MINUS CHANGE IN STORAGE
 DIVIDED BY THE AVERAGE OF IN AND OUT TIMES 100

 PERCENT DISCREPANCY =          -0.00     PERCENT DISCREPANCY =          -0.00






1
              HEAD IN LAYER   1 AT END OF TIME STEP    15 IN STRESS PERIOD    7
  -----------------------------------------------------------------------------

           1       2       3       4       5       6       7       8       9      10
 ...................................................................................
   1  1035.19 1033.59 6999.00 6999.00 6999.00 6999.00 6999.00 6999.00 6999.00 6999.00
   2  1034.52 1033.22 1032.15 6999.00 6999.00 1033.84 1034.07 1034.14 6999.00 6999.00
   3  6999.00 1032.26 1031.87 1031.55 1032.00 1032.74 1033.48 1033.67 6999.00 6999.00
   4  1031.54 1031.49 1031.12 1030.67 1030.72 1030.76 1031.56 1032.94 1032.91 6999.00
   5  1031.06 1030.65 1030.22 1029.83 1029.92 1030.20 1030.41 1031.01 1031.80 1032.35
   6  1030.44 1029.82 1029.33 1028.99 1029.11 1029.53 1029.87 1030.52 1031.54 1032.87
   7  1029.88 1028.77 1028.28 1027.99 1028.17 1028.67 1029.16 1029.81 1031.15 6999.00
   8  6999.00 1027.24 1026.95 1026.77 1026.99 1027.57 1028.05 1029.28 1030.38 6999.00
   9  6999.00 1024.96 1025.01 1025.12 1025.50 1026.22 1026.78 1028.08 1029.54 6999.00
  10  6999.00 1021.87 1022.35 1023.07 1023.85 1024.91 1025.91 1027.42 1029.31 1029.95
  11  6999.00 1017.03 1018.10 1020.43 1022.08 1023.87 1025.51 1027.67 1030.12 6999.00
  12  1003.12 1008.98 1012.79 1016.80 1020.13 1023.21 1025.75 1029.36 1032.60 6999.00
  13   995.73 1000.75 1007.18 1013.20 1018.60 1023.37 1027.59 1032.21 1035.19 6999.00
  14  6999.00 1007.10 1009.98 1014.62 1019.42 1023.87 1028.69 1033.94 1037.79 6999.00
  15  6999.00 6999.00 1013.93 1016.65 1020.11 1023.11 6999.00 6999.00 6999.00 6999.00

 HEAD WILL BE SAVED ON UNIT   62 AT END OF TIME STEP   15, STRESS PERIOD    7
1
  VOLUMETRIC BUDGET FOR ENTIRE MODEL AT END OF TIME STEP   15, STRESS PERIOD   7
  ------------------------------------------------------------------------------

     CUMULATIVE VOLUMES      L**3       RATES FOR THIS TIME STEP      L**3/T
     ------------------                 ------------------------

           IN:                                      IN:
           ---                                      ---
             STORAGE     =     5160547.0000               STORAGE     =       5.2259E-02
       CONSTANT HEAD     =           0.0000         CONSTANT HEAD     =           0.0000
               WELLS     =           0.0000                 WELLS     =           0.0000
     HEAD DEP BOUNDS     =     4040428.0000       HEAD DEP BOUNDS     =           0.2739
      STREAM LEAKAGE     =   166617024.0000        STREAM LEAKAGE     =          13.1170
        UZF RECHARGE     =   379855872.0000          UZF RECHARGE     =          24.9688
               GW ET     =           0.0000                 GW ET     =           0.0000
     SURFACE LEAKAGE     =           0.0000       SURFACE LEAKAGE     =           0.0000
    SUPPLEMENTARY WELLS  =           0.0000      SUPPLEMENTARY WELLS  =           0.0000

                TOTAL IN =   555673856.0000                  TOTAL IN =          38.4119

          OUT:                                     OUT:
          ----                                     ----
             STORAGE     =   382276640.0000               STORAGE     =          26.1434
       CONSTANT HEAD     =           0.0000         CONSTANT HEAD     =           0.0000
               WELLS     =           0.0000                 WELLS     =           0.0000
     HEAD DEP BOUNDS     =     4250228.5000       HEAD DEP BOUNDS     =           0.2936
      STREAM LEAKAGE     =   162337008.0000        STREAM LEAKAGE     =           8.9707
        UZF RECHARGE     =           0.0000          UZF RECHARGE     =           0.0000
               GW ET     =     6710342.0000                 GW ET     =           3.0001
     SURFACE LEAKAGE     =           0.0000       SURFACE LEAKAGE     =           0.0000
    SUPPLEMENTARY WELLS  =       31277.0938      SUPPLEMENTARY WELLS  =       5.2547E-08

               TOTAL OUT =   555605504.0000                 TOTAL OUT =          38.4078

                IN - OUT =       68352.0000                  IN - OUT =       4.0627E-03

     PERCENT DISCREPANCY =           0.01         PERCENT DISCREPANCY =           0.01






         TIME SUMMARY AT END OF TIME STEP   15 IN STRESS PERIOD    7
                    SECONDS     MINUTES      HOURS       DAYS        YEARS
                    -----------------------------------------------------------
   TIME STEP LENGTH  87600.      1460.0      24.333      1.0139     2.77588E-03
 STRESS PERIOD TIME 1.31400E+06  21900.      365.00      15.208     4.16381E-02
         TOTAL TIME 1.45404E+07 2.42340E+05  4039.0      168.29     0.46076    
1
 
 SOLVING FOR HEAD 
                                                   Max.-Head-Change                         Max.-Flux-Residual
  Residual-Control   Outer-Iter.   Inner-Iter.     Column Row Layer    Maximum-Head-Change  Column Row Layer    Maximum-Flux-Residual          L2-NORM 
          0                 1           2             2    2     1       0.1087153702E-01       2    2    1         0.5664261923E+00      0.1834474660E+01
          0                 2           2             1    2     1       0.2339001942E-02       4   13    1         0.1051049454E+00      0.4786581463E+00
          0                 3           2             1    2     1       0.1050765846E-02       1    2    1         0.2730312548E-01      0.1606936963E+00
          0                 4           2             1    2     1       0.4718235379E-03       1    2    1         0.1226349154E-01      0.6856332998E-01
          0                 5           2             1    2     1       0.2118239560E-03       1    2    1         0.5506292532E-02      0.3047909615E-01
          0                 6           1             1    2     1       0.9509117621E-04       1    2    1         0.2471972850E-02      0.1363088002E-01
          0                 7           1             1    2     1       0.4268679992E-04       1    2    1         0.1109697364E-02      0.6101787272E-02
          0                 8           1             1    2     1       0.1916206900E-04       1    2    1         0.4981455620E-03      0.2731959104E-02
          0                 9           1             1    2     1       0.8601801744E-05       1    2    1         0.2236167965E-03      0.1223279812E-02

    ------------------------------------------------
       NWT REQUIRED            9 OUTER ITERATIONS 
       AND A TOTAL OF         14 INNER ITERATIONS.
    ------------------------------------------------

 NO OUTPUT CONTROL FOR STRESS PERIOD    7   TIME STEP   16
 
 SOLVING FOR HEAD 
                                                   Max.-Head-Change                         Max.-Flux-Residual
  Residual-Control   Outer-Iter.   Inner-Iter.     Column Row Layer    Maximum-Head-Change  Column Row Layer    Maximum-Flux-Residual          L2-NORM 
          0                 1           2             2    2     1       0.1082919391E-01       2    2    1         0.5641987188E+00      0.1828263797E+01
          0                 2           2             1    2     1       0.2341243931E-02       4   13    1         0.1064356843E+00      0.4789983520E+00
          0                 3           2             1    2     1       0.1051769911E-02       1    2    1         0.2732926942E-01      0.1606210864E+00
          0                 4           2             1    2     1       0.4722736805E-03       1    2    1         0.1227520456E-01      0.6851931863E-01
          0                 5           2             1    2     1       0.2120258452E-03       1    2    1         0.5511544493E-02      0.3045910392E-01
          0                 6           1             1    2     1       0.9518173817E-04       1    2    1         0.2474328498E-02      0.1362180795E-01
          0                 7           1             1    2     1       0.4272742546E-04       1    2    1         0.1110754061E-02      0.6097667374E-02
          0                 8           1             1    2     1       0.1918029409E-04       1    2    1         0.4986195993E-03      0.2730089217E-02
          0                 9           1             1    2     1       0.8609977624E-05       1    2    1         0.2238294528E-03      0.1222431409E-02

    ------------------------------------------------
       NWT REQUIRED            9 OUTER ITERATIONS 
       AND A TOTAL OF         14 INNER ITERATIONS.
    ------------------------------------------------

 NO OUTPUT CONTROL FOR STRESS PERIOD    7   TIME STEP   17
 
 SOLVING FOR HEAD 
                                                   Max.-Head-Change                         Max.-Flux-Residual
  Residual-Control   Outer-Iter.   Inner-Iter.     Column Row Layer    Maximum-Head-Change  Column Row Layer    Maximum-Flux-Residual          L2-NORM 
          0                 1           2             2    2     1       0.1078763540E-01       2    2    1         0.5620126651E+00      0.1823075195E+01
          0                 2           2             1    2     1       0.2343474334E-02       4   13    1         0.1076166945E+00      0.4793171217E+00
          0                 3           2             1    2     1       0.1052768805E-02       1    2    1         0.2735527846E-01      0.1605470179E+00
          0                 4           2             1    2     1       0.4727215056E-03       1    2    1         0.1228685727E-01      0.6847436173E-01
          0                 5           2             1    2     1       0.2122266951E-03       1    2    1         0.5516769418E-02      0.3043870279E-01
          0                 6           1             1    2     1       0.9527183292E-04       1    2    1         0.2476672007E-02      0.1361255767E-01
          0                 7           1             1    2     1       0.4276784165E-04       1    2    1         0.1111805307E-02      0.6093470840E-02
          0                 8           1             1    2     1       0.1919842489E-04       1    2    1         0.4990911816E-03      0.2728186027E-02
          0                 9           1             1    2     1       0.8618110985E-05       1    2    1         0.2240410048E-03      0.1221568526E-02

    ------------------------------------------------
       NWT REQUIRED            9 OUTER ITERATIONS 
       AND A TOTAL OF         14 INNER ITERATIONS.
    ------------------------------------------------

 NO OUTPUT CONTROL FOR STRESS PERIOD    7   TIME STEP   18
 
 SOLVING FOR HEAD 
                                                   Max.-Head-Change                         Max.-Flux-Residual
  Residual-Control   Outer-Iter.   Inner-Iter.     Column Row Layer    Maximum-Head-Change  Column Row Layer    Maximum-Flux-Residual          L2-NORM 
          0                 1           2             2    2     1       0.1074675534E-01       2    2    1         0.5598623913E+00      0.1818490046E+01
          0                 2           2             1    2     1       0.2345651928E-02       4   13    1         0.1086726946E+00      0.4795907821E+00
          0                 3           2             1    2     1       0.1053744013E-02       1    2    1         0.2738067145E-01      0.1604717377E+00
          0                 4           2             1    2     1       0.4731587004E-03       1    2    1         0.1229823362E-01      0.6842845279E-01
          0                 5           2             1    2     1       0.2124227726E-03       1    2    1         0.5521870295E-02      0.3041783191E-01
          0                 6           1             1    2     1       0.9535978522E-04       1    2    1         0.2478959830E-02      0.1360310342E-01
          0                 7           1             1    2     1       0.4280729567E-04       1    2    1         0.1112831553E-02      0.6089185006E-02
          0                 8           1             1    2     1       0.1921612400E-04       1    2    1         0.4995515484E-03      0.2726244057E-02
          0                 9           1             1    2     1       0.8626050760E-05       1    2    1         0.2242475257E-03      0.1220690262E-02

    ------------------------------------------------
       NWT REQUIRED            9 OUTER ITERATIONS 
       AND A TOTAL OF         14 INNER ITERATIONS.
    ------------------------------------------------

 NO OUTPUT CONTROL FOR STRESS PERIOD    7   TIME STEP   19
 
 SOLVING FOR HEAD 
                                                   Max.-Head-Change                         Max.-Flux-Residual
  Residual-Control   Outer-Iter.   Inner-Iter.     Column Row Layer    Maximum-Head-Change  Column Row Layer    Maximum-Flux-Residual          L2-NORM 
          0                 1           2             2    2     1       0.1070653839E-01       2    2    1         0.5577471009E+00      0.1814818724E+01
          0                 2           2             1    2     1       0.2347818819E-02       4   13    1         0.1096128430E+00      0.4798723014E+00
          0                 3           2             1    2     1       0.1054714440E-02       1    2    1         0.2740593977E-01      0.1603979537E+00
          0                 4           2             1    2     1       0.4735937526E-03       1    2    1         0.1230955420E-01      0.6838155947E-01
          0                 5           2             1    2     1       0.2126178885E-03       1    2    1         0.5526946172E-02      0.3039642267E-01
          0                 6           1             1    2     1       0.9544730607E-04       1    2    1         0.2481236434E-02      0.1359340694E-01
          0                 7           1             1    2     1       0.4284655610E-04       1    2    1         0.1113852763E-02      0.6084793273E-02
          0                 8           1             1    2     1       0.1923373557E-04       1    2    1         0.5000096472E-03      0.2724254963E-02
          0                 9           1             1    2     1       0.8633951518E-05       1    2    1         0.2244530282E-03      0.1219788996E-02

    ------------------------------------------------
       NWT REQUIRED            9 OUTER ITERATIONS 
       AND A TOTAL OF         14 INNER ITERATIONS.
    ------------------------------------------------

 NO OUTPUT CONTROL FOR STRESS PERIOD    7   TIME STEP   20
 
 SOLVING FOR HEAD 
                                                   Max.-Head-Change                         Max.-Flux-Residual
  Residual-Control   Outer-Iter.   Inner-Iter.     Column Row Layer    Maximum-Head-Change  Column Row Layer    Maximum-Flux-Residual          L2-NORM 
          0                 1           2             2    2     1       0.1066714627E-01       2    2    1         0.5556752737E+00      0.1809280810E+01
          0                 2           2             1    2     1       0.2349933870E-02       4   13    1         0.1104457214E+00      0.4816457293E+00
          0                 3           2             1    2     1       0.1055661623E-02       1    2    1         0.2743060341E-01      0.1602857394E+00
          0                 4           2             1    2     1       0.4740183738E-03       1    2    1         0.1232060358E-01      0.6833006460E-01
          0                 5           2             1    2     1       0.2128083223E-03       1    2    1         0.5531900330E-02      0.3037366593E-01
          0                 6           1             1    2     1       0.9553272475E-04       1    2    1         0.2483458395E-02      0.1358313172E-01
          0                 7           1             1    2     1       0.4288487236E-04       1    2    1         0.1114849436E-02      0.6080146459E-02
          0                 8           1             1    2     1       0.1925092395E-04       1    2    1         0.5004567356E-03      0.2722154799E-02
          0                 9           1             1    2     1       0.8641661941E-05       1    2    1         0.2246535839E-03      0.1218839989E-02

    ------------------------------------------------
       NWT REQUIRED            9 OUTER ITERATIONS 
       AND A TOTAL OF         14 INNER ITERATIONS.
    ------------------------------------------------

 NO OUTPUT CONTROL FOR STRESS PERIOD    7   TIME STEP   21
 
 SOLVING FOR HEAD 
                                                   Max.-Head-Change                         Max.-Flux-Residual
  Residual-Control   Outer-Iter.   Inner-Iter.     Column Row Layer    Maximum-Head-Change  Column Row Layer    Maximum-Flux-Residual          L2-NORM 
          0                 1           2             2   13     1      -0.1158452946E-01       2   13    1        -0.6664547081E+00      0.1925531886E+01
          0                 2           2             2   13     1       0.2951794096E-02       2   13    1         0.1699378655E+00      0.5001643151E+00
          0                 3           2             1    2     1       0.1056604426E-02       1    2    1         0.2745515286E-01      0.1605431910E+00
          0                 4           2             1    2     1       0.4744410312E-03       1    2    1         0.1233160186E-01      0.6827145190E-01
          0                 5           2             1    2     1       0.2129978745E-03       1    2    1         0.5536831572E-02      0.3034541718E-01
          0                 6           1             1    2     1       0.9561774749E-04       1    2    1         0.2485670069E-02      0.1357040852E-01
          0                 7           1             1    2     1       0.4292301129E-04       1    2    1         0.1115841495E-02      0.6074415205E-02
          0                 8           1             1    2     1       0.1926803230E-04       1    2    1         0.5009017476E-03      0.2719573078E-02
          0                 9           1             1    2     1       0.8649336349E-05       1    2    1         0.2248532096E-03      0.1217678593E-02

    ------------------------------------------------
       NWT REQUIRED            9 OUTER ITERATIONS 
       AND A TOTAL OF         14 INNER ITERATIONS.
    ------------------------------------------------

 NO OUTPUT CONTROL FOR STRESS PERIOD    7   TIME STEP   22
 
 SOLVING FOR HEAD 
                                                   Max.-Head-Change                         Max.-Flux-Residual
  Residual-Control   Outer-Iter.   Inner-Iter.     Column Row Layer    Maximum-Head-Change  Column Row Layer    Maximum-Flux-Residual          L2-NORM 
          0                 1           2             2   13     1      -0.1061016307E-01       2   13    1        -0.6102849005E+00      0.1904750702E+01
          0                 2           2             2   13     1       0.2860267247E-02       2   13    1         0.1646136500E+00      0.4984878503E+00
          0                 3           2             1    2     1       0.1057533719E-02       1    2    1         0.2747935069E-01      0.1603693214E+00
          0                 4           2             1    2     1       0.4748576284E-03       1    2    1         0.1234244254E-01      0.6820856190E-01
          0                 5           2             1    2     1       0.2131847067E-03       1    2    1         0.5541692100E-02      0.3031743457E-01
          0                 6           1             1    2     1       0.9570154920E-04       1    2    1         0.2487850004E-02      0.1355781375E-01
          0                 7           1             1    2     1       0.4296060198E-04       1    2    1         0.1116819304E-02      0.6068741728E-02
          0                 8           1             1    2     1       0.1928489428E-04       1    2    1         0.5013403593E-03      0.2717017940E-02
          0                 9           1             1    2     1       0.8656900707E-05       1    2    1         0.2250499616E-03      0.1216527302E-02

    ------------------------------------------------
       NWT REQUIRED            9 OUTER ITERATIONS 
       AND A TOTAL OF         14 INNER ITERATIONS.
    ------------------------------------------------

 NO OUTPUT CONTROL FOR STRESS PERIOD    7   TIME STEP   23
 
 SOLVING FOR HEAD 
                                                   Max.-Head-Change                         Max.-Flux-Residual
  Residual-Control   Outer-Iter.   Inner-Iter.     Column Row Layer    Maximum-Head-Change  Column Row Layer    Maximum-Flux-Residual          L2-NORM 
          0                 1           2             2    2     1       0.1055278291E-01       2   13    1        -0.5596972190E+00      0.1887469453E+01
          0                 2           2             2   13     1       0.2777827646E-02       2   13    1         0.1598184565E+00      0.4970102029E+00
          0                 3           2             1    2     1       0.1058449671E-02       1    2    1         0.2750320137E-01      0.1601450463E+00
          0                 4           2             1    2     1       0.4752682392E-03       1    2    1         0.1235312756E-01      0.6814449142E-01
          0                 5           2             1    2     1       0.2133688517E-03       1    2    1         0.5546482771E-02      0.3028963133E-01
          0                 6           1             1    2     1       0.9578414437E-04       1    2    1         0.2489998572E-02      0.1354531344E-01
          0                 7           1             1    2     1       0.4299765068E-04       1    2    1         0.1117783029E-02      0.6063111199E-02
          0                 8           1             1    2     1       0.1930151341E-04       1    2    1         0.5017726515E-03      0.2714480961E-02
          0                 9           1             1    2     1       0.8664355267E-05       1    2    1         0.2252438715E-03      0.1215385362E-02

    ------------------------------------------------
       NWT REQUIRED            9 OUTER ITERATIONS 
       AND A TOTAL OF         14 INNER ITERATIONS.
    ------------------------------------------------

 NO OUTPUT CONTROL FOR STRESS PERIOD    7   TIME STEP   24
 
 SOLVING FOR HEAD 
                                                   Max.-Head-Change                         Max.-Flux-Residual
  Residual-Control   Outer-Iter.   Inner-Iter.     Column Row Layer    Maximum-Head-Change  Column Row Layer    Maximum-Flux-Residual          L2-NORM 
          0                 1           2             2    2     1       0.1051600144E-01       2    2    1         0.5477268342E+00      0.1872860918E+01
          0                 2           2             2   13     1       0.2703586858E-02       2   13    1         0.1555005324E+00      0.4956676784E+00
          0                 3           2             1    2     1       0.1059343135E-02       1    2    1         0.2752646712E-01      0.1599597289E+00
          0                 4           2             1    2     1       0.4756687578E-03       1    2    1         0.1236355019E-01      0.6808200203E-01
          0                 5           2             1    2     1       0.2135484659E-03       1    2    1         0.5551155668E-02      0.3026204045E-01
          0                 6           1             1    2     1       0.9586470539E-04       1    2    1         0.2492094276E-02      0.1353289561E-01
          0                 7           1             1    2     1       0.4303378647E-04       1    2    1         0.1118723024E-02      0.6057517012E-02
          0                 8           1             1    2     1       0.1931772261E-04       1    2    1         0.5021942918E-03      0.2711962086E-02
          0                 9           1             1    2     1       0.8671625995E-05       1    2    1         0.2254330013E-03      0.1214250604E-02

    ------------------------------------------------
       NWT REQUIRED            9 OUTER ITERATIONS 
       AND A TOTAL OF         14 INNER ITERATIONS.
    ------------------------------------------------

 NO OUTPUT CONTROL FOR STRESS PERIOD    7   TIME STEP   25
 
 SOLVING FOR HEAD 
                                                   Max.-Head-Change                         Max.-Flux-Residual
  Residual-Control   Outer-Iter.   Inner-Iter.     Column Row Layer    Maximum-Head-Change  Column Row Layer    Maximum-Flux-Residual          L2-NORM 
          0                 1           2             2    2     1       0.1047979180E-01       2    2    1         0.5458228505E+00      0.1860528963E+01
          0                 2           2             2   13     1       0.2636736521E-02       2   13    1         0.1516127805E+00      0.4944546943E+00
          0                 3           2             1    2     1       0.1060233007E-02       1    2    1         0.2754963917E-01      0.1597990547E+00
          0                 4           2             1    2     1       0.4760676669E-03       1    2    1         0.1237393092E-01      0.6802087710E-01
          0                 5           2             1    2     1       0.2137273583E-03       1    2    1         0.5555809785E-02      0.3023479265E-01
          0                 6           1             1    2     1       0.9594494201E-04       1    2    1         0.2494181540E-02      0.1352063074E-01
          0                 7           1             1    2     1       0.4306977645E-04       1    2    1         0.1119659227E-02      0.6051991968E-02
          0                 8           1             1    2     1       0.1933386602E-04       1    2    1         0.5026142236E-03      0.2709473638E-02
          0                 9           1             1    2     1       0.8678867210E-05       1    2    1         0.2256213666E-03      0.1213129435E-02

    ------------------------------------------------
       NWT REQUIRED            9 OUTER ITERATIONS 
       AND A TOTAL OF         14 INNER ITERATIONS.
    ------------------------------------------------

 NO OUTPUT CONTROL FOR STRESS PERIOD    7   TIME STEP   26
 
 SOLVING FOR HEAD 
                                                   Max.-Head-Change                         Max.-Flux-Residual
  Residual-Control   Outer-Iter.   Inner-Iter.     Column Row Layer    Maximum-Head-Change  Column Row Layer    Maximum-Flux-Residual          L2-NORM 
          0                 1           2             2    2     1       0.1044422883E-01       2    2    1         0.5439530058E+00      0.1847031509E+01
          0                 2           2             2   13     1       0.2576237956E-02       2   13    1         0.1480949459E+00      0.4935082847E+00
          0                 3           2             1    2     1       0.1061110109E-02       1    2    1         0.2757247887E-01      0.1596434124E+00
          0                 4           2             1    2     1       0.4764608462E-03       1    2    1         0.1238416267E-01      0.6795886684E-01
          0                 5           2             1    2     1       0.2139036786E-03       1    2    1         0.5560397055E-02      0.3020711550E-01
          0                 6           1             1    2     1       0.9602402512E-04       1    2    1         0.2496238811E-02      0.1350817571E-01
          0                 7           1             1    2     1       0.4310524770E-04       1    2    1         0.1120581955E-02      0.6046383561E-02
          0                 8           1             1    2     1       0.1934977684E-04       1    2    1         0.5030281118E-03      0.2706948674E-02
          0                 9           1             1    2     1       0.8686004378E-05       1    2    1         0.2258070162E-03      0.1211993493E-02

    ------------------------------------------------
       NWT REQUIRED            9 OUTER ITERATIONS 
       AND A TOTAL OF         14 INNER ITERATIONS.
    ------------------------------------------------

 NO OUTPUT CONTROL FOR STRESS PERIOD    7   TIME STEP   27
 
 SOLVING FOR HEAD 
                                                   Max.-Head-Change                         Max.-Flux-Residual
  Residual-Control   Outer-Iter.   Inner-Iter.     Column Row Layer    Maximum-Head-Change  Column Row Layer    Maximum-Flux-Residual          L2-NORM 
          0                 1           2             6   13     1      -0.1174804970E-01       6   13    1        -0.6393475102E+00      0.1945910522E+01
          0                 2           2             2   13     1       0.2519643953E-02       2   13    1         0.1448059315E+00      0.4990970055E+00
          0                 3           2             1    2     1       0.1061983975E-02       1    2    1         0.2759523411E-01      0.1596264344E+00
          0                 4           2             1    2     1       0.4768525769E-03       1    2    1         0.1239435670E-01      0.6788808069E-01
          0                 5           2             1    2     1       0.2140793491E-03       1    2    1         0.5564967416E-02      0.3017457864E-01
          0                 6           1             1    2     1       0.9610281510E-04       1    2    1         0.2498288487E-02      0.1349354131E-01
          0                 7           1             1    2     1       0.4314058889E-04       1    2    1         0.1121501288E-02      0.6039802845E-02
          0                 8           1             1    2     1       0.1936562888E-04       1    2    1         0.5034404682E-03      0.2703989338E-02
          0                 9           1             1    2     1       0.8693114535E-05       1    2    1         0.2259919773E-03      0.1210662485E-02

    ------------------------------------------------
       NWT REQUIRED            9 OUTER ITERATIONS 
       AND A TOTAL OF         14 INNER ITERATIONS.
    ------------------------------------------------

 NO OUTPUT CONTROL FOR STRESS PERIOD    7   TIME STEP   28
 
 SOLVING FOR HEAD 
                                                   Max.-Head-Change                         Max.-Flux-Residual
  Residual-Control   Outer-Iter.   Inner-Iter.     Column Row Layer    Maximum-Head-Change  Column Row Layer    Maximum-Flux-Residual          L2-NORM 
          0                 1           2             6   13     1      -0.1122064033E-01       6   13    1        -0.6105370876E+00      0.1928541374E+01
          0                 2           2             2   13     1       0.2470992877E-02       2   13    1         0.1419770597E+00      0.4976488269E+00
          0                 3           2             1    2     1       0.1062836022E-02       2    3    1         0.2763088424E-01      0.1594333872E+00
          0                 4           2             1    2     1       0.4772345142E-03       1    2    1         0.1240429612E-01      0.6781543167E-01
          0                 5           2             1    2     1       0.2142506229E-03       1    2    1         0.5569423492E-02      0.3014225703E-01
          0                 6           1             1    2     1       0.9617963221E-04       1    2    1         0.2500286856E-02      0.1347902052E-01
          0                 7           1             1    2     1       0.4317504294E-04       1    2    1         0.1122397575E-02      0.6033274146E-02
          0                 8           1             1    2     1       0.1938108274E-04       1    2    1         0.5038424811E-03      0.2701054212E-02
          0                 9           1             1    2     1       0.8700046363E-05       1    2    1         0.2261723002E-03      0.1209343920E-02

    ------------------------------------------------
       NWT REQUIRED            9 OUTER ITERATIONS 
       AND A TOTAL OF         14 INNER ITERATIONS.
    ------------------------------------------------

 NO OUTPUT CONTROL FOR STRESS PERIOD    7   TIME STEP   29
 
 SOLVING FOR HEAD 
                                                   Max.-Head-Change                         Max.-Flux-Residual
  Residual-Control   Outer-Iter.   Inner-Iter.     Column Row Layer    Maximum-Head-Change  Column Row Layer    Maximum-Flux-Residual          L2-NORM 
          0                 1           2             2   13     1      -0.1410672483E-01       2   13    1        -0.8031306922E+00      0.2141866561E+01
          0                 2           2             2   13     1       0.3163096534E-02       2   13    1         0.1811907616E+00      0.5270196691E+00
          0                 3           2             1    2     1       0.1062979589E-02       1    2    1         0.2762265620E-01      0.1592637401E+00
          0                 4           2             1    2     1       0.4772830065E-03       1    2    1         0.1240582128E-01      0.6764547381E-01
          0                 5           2             1    2     1       0.2142695388E-03       1    2    1         0.5569962926E-02      0.3008337860E-01
          0                 6           1             1    2     1       0.9618759024E-04       1    2    1         0.2500502827E-02      0.1345422073E-01
          0                 7           1             1    2     1       0.4317850572E-04       1    2    1         0.1122489537E-02      0.6022310722E-02
          0                 8           1             1    2     1       0.1938261067E-04       1    2    1         0.5038826995E-03      0.2696168089E-02
          0                 9           1             1    2     1       0.8700724164E-05       1    2    1         0.2261900772E-03      0.1207162849E-02

    ------------------------------------------------
       NWT REQUIRED            9 OUTER ITERATIONS 
       AND A TOTAL OF         14 INNER ITERATIONS.
    ------------------------------------------------

 NO OUTPUT CONTROL FOR STRESS PERIOD    7   TIME STEP   30



 STREAM LISTING     PERIOD      7   STEP       30

 LAYER ROW COL. STREAM  RCH.  FLOW INTO     FLOW TO   FLOW OUT OF   OVRLND.     DIRECT     STREAM       STREAM     STREAM     STREAM   STREAMBED  STREAMBED
                SEG.NO.  NO.  STRM. RCH.    AQUIFER    STRM. RCH.    RUNOFF     PRECIP       ET          HEAD       DEPTH      WIDTH   CONDCTNC.   GRADIENT

   1    1    1     1     1    7.6644E+01  4.2624E-01   7.6218E+01  0.000E+00  0.000E+00  0.000E+00  1.09475E+03  1.706E+00  2.013E+01  9.057E-02  1.569E+00
   1    2    2     1     2    7.6218E+01  6.6113E-01   7.5556E+01  0.000E+00  0.000E+00  0.000E+00  1.08976E+03  1.704E+00  2.008E+01  1.405E-01  1.568E+00
   1    3    3     1     3    7.5556E+01  5.6483E-01   7.4992E+01  0.000E+00  0.000E+00  0.000E+00  1.08412E+03  1.701E+00  2.002E+01  1.201E-01  1.567E+00
   1    3    4     1     4    7.4992E+01  5.2063E-01   7.4471E+01  0.000E+00  0.000E+00  0.000E+00  1.07910E+03  1.697E+00  1.997E+01  1.108E-01  1.566E+00
   1    4    5     2     1    7.2471E+01  4.1207E-01   7.2059E+01  0.000E+00  0.000E+00  0.000E+00  1.07422E+03  2.283E+00  1.200E+01  7.800E-02  1.761E+00
   1    5    6     2     2    7.2059E+01  3.1656E-01   7.1742E+01  0.000E+00  0.000E+00  0.000E+00  1.06879E+03  2.276E+00  1.200E+01  6.000E-02  1.759E+00
   1    6    6     2     3    7.1742E+01  3.1620E-01   7.1426E+01  0.000E+00  0.000E+00  0.000E+00  1.06406E+03  2.270E+00  1.200E+01  6.000E-02  1.757E+00
   1    7    6     2     4    7.1426E+01  3.1584E-01   7.1110E+01  0.000E+00  0.000E+00  0.000E+00  1.05934E+03  2.264E+00  1.200E+01  6.000E-02  1.755E+00
   1    8    6     2     5    7.1110E+01  3.1548E-01   7.0795E+01  0.000E+00  0.000E+00  0.000E+00  1.05462E+03  2.258E+00  1.200E+01  6.000E-02  1.753E+00
   1    3    5     3     1    2.0000E+00  2.8252E-01   1.7175E+00  0.000E+00  0.000E+00  0.000E+00  1.07555E+03  1.909E+00  9.636E+00  7.227E-02  1.955E+00
   1    3    6     3     2    1.7175E+00  2.4905E-01   1.4684E+00  0.000E+00  0.000E+00  0.000E+00  1.07264E+03  1.727E+00  8.909E+00  6.682E-02  1.864E+00
   1    3    7     3     3    1.4684E+00  1.9718E-01   1.2712E+00  0.000E+00  0.000E+00  0.000E+00  1.06987E+03  1.555E+00  8.218E+00  5.547E-02  1.777E+00
   1    4    8     3     4    1.2712E+00  2.2567E-01   1.0456E+00  0.000E+00  0.000E+00  0.000E+00  1.06682E+03  1.364E+00  7.455E+00  6.709E-02  1.682E+00
   1    5    8     3     5    1.0456E+00  1.5790E-01   8.8768E-01  0.000E+00  0.000E+00  0.000E+00  1.06362E+03  1.164E+00  6.655E+00  4.991E-02  1.582E+00
   1    6    8     3     6    8.8768E-01  5.5980E-02   8.3170E-01  0.000E+00  0.000E+00  0.000E+00  1.06158E+03  1.036E+00  6.145E+00  1.844E-02  1.518E+00
   1    5   10     4     1    1.0000E+01  9.0919E-02   9.9091E+00  0.000E+00  0.000E+00  0.000E+00  1.07836E+03  6.368E-01  1.000E+01  2.500E-02  1.212E+00
   1    5    9     4     2    9.9091E+00  1.8158E-01   9.7275E+00  0.000E+00  0.000E+00  0.000E+00  1.07154E+03  6.315E-01  1.000E+01  5.000E-02  1.211E+00
   1    6    8     4     3    9.7275E+00  1.2689E-01   9.6006E+00  0.000E+00  0.000E+00  0.000E+00  1.06381E+03  6.256E-01  1.000E+01  3.500E-02  1.209E+00
   1    6    8     5     1    1.0432E+01  2.2686E-01   1.0205E+01  0.000E+00  0.000E+00  0.000E+00  1.05868E+03  6.790E-01  1.542E+01  6.166E-02  1.226E+00
   1    7    7     5     2    1.0205E+01  2.7894E-01   9.9265E+00  0.000E+00  0.000E+00  0.000E+00  1.05417E+03  6.732E-01  1.519E+01  7.594E-02  1.224E+00
   1    8    7     5     3    9.9265E+00  1.9221E-01   9.7343E+00  0.000E+00  0.000E+00  0.000E+00  1.04992E+03  6.676E-01  1.497E+01  5.241E-02  1.223E+00
   1    8    6     5     4    9.7343E+00  1.3577E-01   9.5985E+00  0.000E+00  0.000E+00  0.000E+00  1.04691E+03  6.637E-01  1.482E+01  3.706E-02  1.221E+00
   1    9    6     6     1    8.0393E+01  3.2748E-01   8.0066E+01  0.000E+00  0.000E+00  0.000E+00  1.04519E+03  2.458E+00  1.200E+01  6.000E-02  1.819E+00
   1   10    7     6     2    8.0066E+01  3.2712E-01   7.9739E+01  0.000E+00  0.000E+00  0.000E+00  1.04063E+03  2.452E+00  1.200E+01  6.000E-02  1.817E+00
   1   11    7     6     3    7.9739E+01  3.2675E-01   7.9412E+01  0.000E+00  0.000E+00  0.000E+00  1.03608E+03  2.446E+00  1.200E+01  6.000E-02  1.815E+00
   1   12    7     6     4    7.9412E+01  3.2639E-01   7.9086E+01  0.000E+00  0.000E+00  0.000E+00  1.03153E+03  2.440E+00  1.200E+01  6.000E-02  1.813E+00
   1   13    7     6     5    7.9086E+01  1.7362E-02   7.9068E+01  0.000E+00  0.000E+00  0.000E+00  1.02835E+03  2.437E+00  1.200E+01  2.400E-02  2.411E-01
   1   14    9     7     1    1.5000E+02  1.1583E+00   1.4884E+02  0.000E+00  0.000E+00  0.000E+00  1.03987E+03  2.288E+00  5.530E+01  5.593E-01  6.903E-01
   1   13    8     7     2    1.4884E+02  1.5733E+00   1.4727E+02  0.000E+00  0.000E+00  0.000E+00  1.03478E+03  2.281E+00  5.526E+01  6.149E-01  8.529E-01
   1   13    7     7     3    1.4727E+02  1.1567E+00   1.4611E+02  0.000E+00  0.000E+00  0.000E+00  1.02969E+03  2.274E+00  5.523E+01  5.586E-01  6.902E-01
   1   13    6     8     1    2.2518E+02  8.6310E-01   2.2432E+02  0.000E+00  0.000E+00  0.000E+00  1.02515E+03  3.278E+00  4.753E+01  4.844E-01  5.940E-01
   1   13    5     8     2    2.2432E+02  1.4688E-01   2.2417E+02  0.000E+00  0.000E+00  0.000E+00  1.01890E+03  3.275E+00  4.749E+01  4.840E-01  1.012E-01
   1   13    4     8     3    2.2417E+02 -2.7164E+00   2.2689E+02  0.000E+00  0.000E+00  0.000E+00  1.01266E+03  3.282E+00  4.759E+01  4.850E+00 -1.867E-01
   1   13    3     8     4    2.2689E+02 -3.7594E+00   2.3065E+02  0.000E+00  0.000E+00  0.000E+00  1.00642E+03  3.300E+00  4.785E+01  4.876E+00 -2.570E-01
   1   13    2     8     5    2.3065E+02 -2.5657E+00   2.3321E+02  0.000E+00  0.000E+00  0.000E+00  1.00019E+03  3.317E+00  4.810E+01  4.901E+00 -1.745E-01
   1   13    1     8     6    2.3321E+02 -1.5882E+00   2.3480E+02  0.000E+00  0.000E+00  0.000E+00  9.95203E+02  3.328E+00  4.826E+01  2.951E+00 -1.794E-01
   1    6    8     9     1    4.5979E-07  0.0000E+00   4.5979E-07  0.000E+00  0.000E+00  0.000E+00  1.07850E+03  1.945E-05  4.000E+00  0.000E+00  1.000E+00





UNSATURATED ZONE PACKAGE VOLUMETRIC BUDGET FOR  TIME STEP    30 STRESS PERIOD    7
  ------------------------------------------------------------------------------



     CUMULATIVE VOLUMES      L**3       RATES FOR THIS TIME STEP      L**3/T
     ------------------                 ------------------------

           IN:                                      IN:
           ---                                      ---
        INFILTRATION =      183083.9031          INFILTRATION =           0.0000

          OUT:                                     OUT:
          ----                                     ----
              UZF ET =   333936925.0325                UZF ET =          82.4999
        UZF RECHARGE =   412510401.7784          UZF RECHARGE =          24.6027

            IN - OUT =  -746264242.9079              IN - OUT =        -107.1027

          STORAGE:                                 STORAGE:
          --------                                 --------
      STORAGE CHANGE =  -746238531.0391        STORAGE CHANGE =        -107.1024

 PERCENT DISCREPANCY IS DIFFERENCE BETWEEN IN-OUT MINUS CHANGE IN STORAGE
 DIVIDED BY THE AVERAGE OF IN AND OUT TIMES 100

 PERCENT DISCREPANCY =          -0.00     PERCENT DISCREPANCY =          -0.00






1
  VOLUMETRIC BUDGET FOR ENTIRE MODEL AT END OF TIME STEP   30, STRESS PERIOD   7
  ------------------------------------------------------------------------------

     CUMULATIVE VOLUMES      L**3       RATES FOR THIS TIME STEP      L**3/T
     ------------------                 ------------------------

           IN:                                      IN:
           ---                                      ---
             STORAGE     =     5728145.0000               STORAGE     =           2.2770
       CONSTANT HEAD     =           0.0000         CONSTANT HEAD     =           0.0000
               WELLS     =           0.0000                 WELLS     =           0.0000
     HEAD DEP BOUNDS     =     4400148.5000       HEAD DEP BOUNDS     =           0.2737
      STREAM LEAKAGE     =   183770800.0000        STREAM LEAKAGE     =          12.4738
        UZF RECHARGE     =   412510400.0000          UZF RECHARGE     =          24.6027
               GW ET     =           0.0000                 GW ET     =           0.0000
     SURFACE LEAKAGE     =           0.0000       SURFACE LEAKAGE     =           0.0000
    SUPPLEMENTARY WELLS  =           0.0000      SUPPLEMENTARY WELLS  =           0.0000

                TOTAL IN =   606409472.0000                  TOTAL IN =          39.6272

          OUT:                                     OUT:
          ----                                     ----
             STORAGE     =   415716832.0000               STORAGE     =          24.1992
       CONSTANT HEAD     =           0.0000         CONSTANT HEAD     =           0.0000
               WELLS     =           0.0000                 WELLS     =           0.0000
     HEAD DEP BOUNDS     =     4636640.0000       HEAD DEP BOUNDS     =           0.2942
      STREAM LEAKAGE     =   174496608.0000        STREAM LEAKAGE     =          10.6297
        UZF RECHARGE     =           0.0000          UZF RECHARGE     =           0.0000
               GW ET     =    11454510.0000                 GW ET     =           4.5001
     SURFACE LEAKAGE     =           0.0000       SURFACE LEAKAGE     =           0.0000
    SUPPLEMENTARY WELLS  =       31277.1445      SUPPLEMENTARY WELLS  =       5.2547E-08

               TOTAL OUT =   606335872.0000                 TOTAL OUT =          39.6232

                IN - OUT =       73600.0000                  IN - OUT =       3.9940E-03

     PERCENT DISCREPANCY =           0.01         PERCENT DISCREPANCY =           0.01






         TIME SUMMARY AT END OF TIME STEP   30 IN STRESS PERIOD    7
                    SECONDS     MINUTES      HOURS       DAYS        YEARS
                    -----------------------------------------------------------
   TIME STEP LENGTH  87600.      1460.0      24.333      1.0139     2.77588E-03
 STRESS PERIOD TIME 2.62800E+06  43800.      730.00      30.417     8.32763E-02
         TOTAL TIME 1.58544E+07 2.64240E+05  4404.0      183.50     0.50240    
1
1
                            STRESS PERIOD NO.    8, LENGTH =   2628000.    
                            -----------------------------------------------

                              NUMBER OF TIME STEPS =    30

                               MULTIPLIER FOR DELT =     1.000

                            INITIAL TIME STEP SIZE =   87600.00    

 WELL NO.  LAYER   ROW   COL   STRESS RATE         
 --------------------------------------------------
      1      1      6      4       0.000    
      2      1      6      7       0.000    
      3      1      7      4       0.000    
      4      1      7      5       0.000    
      5      1      8      4       0.000    
      6      1      8      5       0.000    
      7      1      9      4       0.000    
      8      1      9      5       0.000    
      9      1     10      4       0.000    
     10      1     10      5       0.000    

     10 WELLS

 REUSING NON-PARAMETER GHB CELLS FROM LAST STRESS PERIOD

      2 GHB CELLS

 REUSING STREAM SEGMENT DATA FROM LAST STRESS PERIOD



            AREAL INFILTRATION RATE
 READING ON UNIT   19 WITH FORMAT: (10F4.0)            

            1           2           3           4           5           6           7           8           9          10
 ........................................................................................................................
   1    0.000       0.000       0.000       0.000       0.000       0.000       0.000       0.000       0.000       0.000    
   2    0.000       0.000       0.000       0.000       0.000       0.000       0.000       0.000       0.000       0.000    
   3    0.000       0.000       0.000       0.000       0.000       0.000       0.000       0.000       0.000       0.000    
   4    0.000       0.000       0.000       0.000       0.000       0.000       0.000       0.000       0.000       0.000    
   5    0.000       0.000       0.000       0.000       0.000       0.000       0.000       0.000       0.000       0.000    
   6    0.000       0.000       0.000       0.000       0.000       0.000       0.000       0.000       0.000       0.000    
   7    0.000       0.000       0.000       0.000       0.000       0.000       0.000       0.000       0.000       0.000    
   8    0.000       0.000       0.000       0.000       0.000       0.000       0.000       0.000       0.000       0.000    
   9    0.000       0.000       0.000       0.000       0.000       0.000       0.000       0.000       0.000       0.000    
  10    0.000       0.000       0.000       0.000       0.000       0.000       0.000       0.000       0.000       0.000    
  11    0.000       0.000       0.000       0.000       0.000       0.000       0.000       0.000       0.000       0.000    
  12    0.000       0.000       0.000       0.000       0.000       0.000       0.000       0.000       0.000       0.000    
  13    0.000       0.000       0.000       0.000       0.000       0.000       0.000       0.000       0.000       0.000    
  14    0.000       0.000       0.000       0.000       0.000       0.000       0.000       0.000       0.000       0.000    
  15    0.000       0.000       0.000       0.000       0.000       0.000       0.000       0.000       0.000       0.000    

                  ET RATE =  8.000000E-08

 USING ET EXTINCTION DEPTH FROM PREVIOUS STRESS PERIOD. CURRENT PERIOD IS:       8

 USING EXTINCTION WATER CONTENT FROM PREVIOUS STRESS PERIOD. CURRENT PERIOD IS:       8

 PROCESSING AGO STRESS PERIOD DATA

 READING AGO STRESS PERIOD DATA

 READING IRRIGATION STREAM

 READING IRRIGATION WELL

 READING SUPPLEMENTAL WEL

 END PROCESSING AGO STRESS PERIOD DATA OPTIONS
 
 SOLVING FOR HEAD 
                                                   Max.-Head-Change                         Max.-Flux-Residual
  Residual-Control   Outer-Iter.   Inner-Iter.     Column Row Layer    Maximum-Head-Change  Column Row Layer    Maximum-Flux-Residual          L2-NORM 
          0                 1           2             2   13     1      -0.4005874498E-01       2   13    1        -0.2265820895E+01      0.4917726596E+01
          0                 2           2             2   13     1       0.5609506317E-02       2   13    1         0.3202250344E+00      0.7555058656E+00
          0                 3           2             1    2     1       0.1062651884E-02       1    2    1         0.2761555284E-01      0.1652028072E+00
          0                 4           2             1    2     1       0.4771208493E-03       1    2    1         0.1240185545E-01      0.6745229555E-01
          0                 5           2             1    2     1       0.2141940493E-03       1    2    1         0.5568045626E-02      0.2997054021E-01
          0                 6           1             1    2     1       0.9615319597E-04       1    2    1         0.2499617365E-02      0.1340461457E-01
          0                 7           1             1    2     1       0.4316296082E-04       1    2    1         0.1122087299E-02      0.6000265901E-02
          0                 8           1             1    2     1       0.1937560606E-04       1    2    1         0.5037011020E-03      0.2686340510E-02
          0                 9           1             1    2     1       0.8697571764E-05       1    2    1         0.2261082876E-03      0.1204137632E-02

    ------------------------------------------------
       NWT REQUIRED            9 OUTER ITERATIONS 
       AND A TOTAL OF         14 INNER ITERATIONS.
    ------------------------------------------------

 NO OUTPUT CONTROL FOR STRESS PERIOD    8   TIME STEP    1
 
 SOLVING FOR HEAD 
                                                   Max.-Head-Change                         Max.-Flux-Residual
  Residual-Control   Outer-Iter.   Inner-Iter.     Column Row Layer    Maximum-Head-Change  Column Row Layer    Maximum-Flux-Residual          L2-NORM 
          0                 1           2             2   13     1      -0.3707045976E-01       2   13    1        -0.2096433836E+01      0.4648509596E+01
          0                 2           2             2   13     1       0.5344428061E-02       2   13    1         0.3050601545E+00      0.7324991696E+00
          0                 3           2             1    2     1       0.1062507339E-02       1    2    1         0.2761181437E-01      0.1639405592E+00
          0                 4           2             1    2     1       0.4770556025E-03       1    2    1         0.1240016672E-01      0.6721873701E-01
          0                 5           2             1    2     1       0.2141646097E-03       1    2    1         0.5567283453E-02      0.2987135769E-01
          0                 6           1             1    2     1       0.9613991507E-04       1    2    1         0.2499273494E-02      0.1336042397E-01
          0                 7           1             1    2     1       0.4315697041E-04       1    2    1         0.1121932181E-02      0.5980501610E-02
          0                 8           1             1    2     1       0.1937290386E-04       1    2    1         0.5036311312E-03      0.2677469683E-02
          0                 9           1             1    2     1       0.8696353223E-05       1    2    1         0.2260767306E-03      0.1198798188E-02

    ------------------------------------------------
       NWT REQUIRED            9 OUTER ITERATIONS 
       AND A TOTAL OF         14 INNER ITERATIONS.
    ------------------------------------------------

 NO OUTPUT CONTROL FOR STRESS PERIOD    8   TIME STEP    2
 
 SOLVING FOR HEAD 
                                                   Max.-Head-Change                         Max.-Flux-Residual
  Residual-Control   Outer-Iter.   Inner-Iter.     Column Row Layer    Maximum-Head-Change  Column Row Layer    Maximum-Flux-Residual          L2-NORM 
          0                 1           2             2   13     1      -0.3432405399E-01       2   13    1        -0.1940786590E+01      0.4404232221E+01
          0                 2           2             2   13     1       0.5100746134E-02       2   13    1         0.2911219271E+00      0.7115818772E+00
          0                 3           2             1    2     1       0.1062370330E-02       1    2    1         0.2760827184E-01      0.1627383645E+00
          0                 4           2             1    2     1       0.4769937386E-03       1    2    1         0.1239856594E-01      0.6698373114E-01
          0                 5           2             1    2     1       0.2141366893E-03       1    2    1         0.5566560778E-02      0.2977036848E-01
          0                 6           1             1    2     1       0.9612731748E-04       1    2    1         0.2498947368E-02      0.1331556515E-01
          0                 7           1             1    2     1       0.4315128589E-04       1    2    1         0.1121785023E-02      0.5960503404E-02
          0                 8           1             1    2     1       0.1937033972E-04       1    2    1         0.5035647412E-03      0.2668806963E-02
          0                 9           1             1    2     1       0.8695196209E-05       1    2    1         0.2260467747E-03      0.1195114141E-02

    ------------------------------------------------
       NWT REQUIRED            9 OUTER ITERATIONS 
       AND A TOTAL OF         14 INNER ITERATIONS.
    ------------------------------------------------

 NO OUTPUT CONTROL FOR STRESS PERIOD    8   TIME STEP    3
 
 SOLVING FOR HEAD 
                                                   Max.-Head-Change                         Max.-Flux-Residual
  Residual-Control   Outer-Iter.   Inner-Iter.     Column Row Layer    Maximum-Head-Change  Column Row Layer    Maximum-Flux-Residual          L2-NORM 
          0                 1           2             6   13     1      -0.3289237593E-01       2   13    1        -0.1797724967E+01      0.4360740059E+01
          0                 2           2             2   13     1       0.4872342255E-02       2   13    1         0.2780597662E+00      0.7039512657E+00
          0                 3           2             1    2     1       0.1062222130E-02       1    2    1         0.2760443831E-01      0.1620813926E+00
          0                 4           2             1    2     1       0.4769268514E-03       1    2    1         0.1239683457E-01      0.6677371647E-01
          0                 5           2             1    2     1       0.2141065142E-03       1    2    1         0.5565779476E-02      0.2967628500E-01
          0                 6           1             1    2     1       0.9611370644E-04       1    2    1         0.2498594912E-02      0.1327445244E-01
          0                 7           1             1    2     1       0.4314514741E-04       1    2    1         0.1121626052E-02      0.5941701297E-02
          0                 8           1             1    2     1       0.1936757099E-04       1    2    1         0.5034930385E-03      0.2660302588E-02
          0                 9           1             1    2     1       0.8693947405E-05       1    2    1         0.2260144371E-03      0.1191464903E-02

    ------------------------------------------------
       NWT REQUIRED            9 OUTER ITERATIONS 
       AND A TOTAL OF         14 INNER ITERATIONS.
    ------------------------------------------------

 NO OUTPUT CONTROL FOR STRESS PERIOD    8   TIME STEP    4
 
 SOLVING FOR HEAD 
                                                   Max.-Head-Change                         Max.-Flux-Residual
  Residual-Control   Outer-Iter.   Inner-Iter.     Column Row Layer    Maximum-Head-Change  Column Row Layer    Maximum-Flux-Residual          L2-NORM 
          0                 1           2             7   13     1      -0.3641578211E-01       7   13    1        -0.1952771480E+01      0.4437977641E+01
          0                 2           2             2   13     1       0.4664261345E-02       2   13    1         0.2661615427E+00      0.7033086108E+00
          0                 3           2             1    2     1       0.1062072116E-02       1    2    1         0.2760055766E-01      0.1616724818E+00
          0                 4           2             1    2     1       0.4768591498E-03       1    2    1         0.1239508202E-01      0.6656754816E-01
          0                 5           2             1    2     1       0.2140759731E-03       1    2    1         0.5564988665E-02      0.2958548343E-01
          0                 6           1             1    2     1       0.9609993157E-04       1    2    1         0.2498238191E-02      0.1323271324E-01
          0                 7           1             1    2     1       0.4313893491E-04       1    2    1         0.1121465162E-02      0.5923462416E-02
          0                 8           1             1    2     1       0.1936476924E-04       1    2    1         0.5034204803E-03      0.2652028147E-02
          0                 9           1             1    2     1       0.8692684094E-05       1    2    1         0.2259817169E-03      0.1187462109E-02

    ------------------------------------------------
       NWT REQUIRED            9 OUTER ITERATIONS 
       AND A TOTAL OF         14 INNER ITERATIONS.
    ------------------------------------------------

 OUTPUT CONTROL FOR STRESS PERIOD    8   TIME STEP    5
    PRINT BUDGET
    SAVE BUDGET
 UBUDSV SAVING "         STORAGE" ON UNIT102 AT TIME STEP     5, STRESS PERIOD    8
 UBUDSV SAVING "   CONSTANT HEAD" ON UNIT102 AT TIME STEP     5, STRESS PERIOD    8
 UBUDSV SAVING "FLOW RIGHT FACE " ON UNIT102 AT TIME STEP     5, STRESS PERIOD    8
 UBUDSV SAVING "FLOW FRONT FACE " ON UNIT102 AT TIME STEP     5, STRESS PERIOD    8

  HEAD DEP BOUNDS   PERIOD    8   STEP     5
 BOUNDARY      1   LAYER   1   ROW    13   COL     1   RATE   -0.289421    
 BOUNDARY      2   LAYER   1   ROW    14   COL     9   RATE    0.273617    



 STREAM LISTING     PERIOD      8   STEP        5

 LAYER ROW COL. STREAM  RCH.  FLOW INTO     FLOW TO   FLOW OUT OF   OVRLND.     DIRECT     STREAM       STREAM     STREAM     STREAM   STREAMBED  STREAMBED
                SEG.NO.  NO.  STRM. RCH.    AQUIFER    STRM. RCH.    RUNOFF     PRECIP       ET          HEAD       DEPTH      WIDTH   CONDCTNC.   GRADIENT

   1    1    1     1     1    6.3000E+01  3.8236E-01   6.2618E+01  0.000E+00  0.000E+00  0.000E+00  1.09461E+03  1.562E+00  1.863E+01  8.382E-02  1.521E+00
   1    2    2     1     2    6.2618E+01  5.9218E-01   6.2025E+01  0.000E+00  0.000E+00  0.000E+00  1.08961E+03  1.556E+00  1.857E+01  1.300E-01  1.519E+00
   1    3    3     1     3    6.2025E+01  5.0506E-01   6.1520E+01  0.000E+00  0.000E+00  0.000E+00  1.08397E+03  1.549E+00  1.850E+01  1.110E-01  1.516E+00
   1    3    4     1     4    6.1520E+01  4.6510E-01   6.1055E+01  0.000E+00  0.000E+00  0.000E+00  1.07895E+03  1.543E+00  1.845E+01  1.024E-01  1.514E+00
   1    4    5     2     1    5.9055E+01  3.9145E-01   5.8664E+01  0.000E+00  0.000E+00  0.000E+00  1.07395E+03  2.019E+00  1.200E+01  7.800E-02  1.673E+00
   1    5    6     2     2    5.8664E+01  3.0068E-01   5.8363E+01  0.000E+00  0.000E+00  0.000E+00  1.06852E+03  2.011E+00  1.200E+01  6.000E-02  1.670E+00
   1    6    6     2     3    5.8363E+01  3.0031E-01   5.8063E+01  0.000E+00  0.000E+00  0.000E+00  1.06380E+03  2.005E+00  1.200E+01  6.000E-02  1.668E+00
   1    7    6     2     4    5.8063E+01  2.9994E-01   5.7763E+01  0.000E+00  0.000E+00  0.000E+00  1.05907E+03  1.999E+00  1.200E+01  6.000E-02  1.666E+00
   1    8    6     2     5    5.7763E+01  2.9957E-01   5.7463E+01  0.000E+00  0.000E+00  0.000E+00  1.05435E+03  1.993E+00  1.200E+01  6.000E-02  1.664E+00
   1    3    5     3     1    2.0000E+00  2.8252E-01   1.7175E+00  0.000E+00  0.000E+00  0.000E+00  1.07555E+03  1.909E+00  9.636E+00  7.227E-02  1.955E+00
   1    3    6     3     2    1.7175E+00  2.4905E-01   1.4684E+00  0.000E+00  0.000E+00  0.000E+00  1.07264E+03  1.727E+00  8.909E+00  6.682E-02  1.864E+00
   1    3    7     3     3    1.4684E+00  1.9718E-01   1.2712E+00  0.000E+00  0.000E+00  0.000E+00  1.06987E+03  1.555E+00  8.218E+00  5.547E-02  1.777E+00
   1    4    8     3     4    1.2712E+00  2.2567E-01   1.0456E+00  0.000E+00  0.000E+00  0.000E+00  1.06682E+03  1.364E+00  7.455E+00  6.709E-02  1.682E+00
   1    5    8     3     5    1.0456E+00  1.5790E-01   8.8768E-01  0.000E+00  0.000E+00  0.000E+00  1.06362E+03  1.164E+00  6.655E+00  4.991E-02  1.582E+00
   1    6    8     3     6    8.8768E-01  5.5980E-02   8.3170E-01  0.000E+00  0.000E+00  0.000E+00  1.06158E+03  1.036E+00  6.145E+00  1.844E-02  1.518E+00
   1    5   10     4     1    1.0000E+01  9.0919E-02   9.9091E+00  0.000E+00  0.000E+00  0.000E+00  1.07836E+03  6.368E-01  1.000E+01  2.500E-02  1.212E+00
   1    5    9     4     2    9.9091E+00  1.8158E-01   9.7275E+00  0.000E+00  0.000E+00  0.000E+00  1.07154E+03  6.315E-01  1.000E+01  5.000E-02  1.211E+00
   1    6    8     4     3    9.7275E+00  1.2689E-01   9.6006E+00  0.000E+00  0.000E+00  0.000E+00  1.06381E+03  6.256E-01  1.000E+01  3.500E-02  1.209E+00
   1    6    8     5     1    1.0432E+01  2.2686E-01   1.0205E+01  0.000E+00  0.000E+00  0.000E+00  1.05868E+03  6.790E-01  1.542E+01  6.166E-02  1.226E+00
   1    7    7     5     2    1.0205E+01  2.7894E-01   9.9265E+00  0.000E+00  0.000E+00  0.000E+00  1.05417E+03  6.732E-01  1.519E+01  7.594E-02  1.224E+00
   1    8    7     5     3    9.9265E+00  1.9221E-01   9.7343E+00  0.000E+00  0.000E+00  0.000E+00  1.04992E+03  6.676E-01  1.497E+01  5.241E-02  1.223E+00
   1    8    6     5     4    9.7343E+00  1.3577E-01   9.5985E+00  0.000E+00  0.000E+00  0.000E+00  1.04691E+03  6.637E-01  1.482E+01  3.706E-02  1.221E+00
   1    9    6     6     1    6.7061E+01  3.1225E-01   6.6749E+01  0.000E+00  0.000E+00  0.000E+00  1.04493E+03  2.204E+00  1.200E+01  6.000E-02  1.735E+00
   1   10    7     6     2    6.6749E+01  3.1188E-01   6.6437E+01  0.000E+00  0.000E+00  0.000E+00  1.04038E+03  2.198E+00  1.200E+01  6.000E-02  1.733E+00
   1   11    7     6     3    6.6437E+01  3.1151E-01   6.6126E+01  0.000E+00  0.000E+00  0.000E+00  1.03583E+03  2.192E+00  1.200E+01  6.000E-02  1.731E+00
   1   12    7     6     4    6.6126E+01  3.1114E-01   6.5815E+01  0.000E+00  0.000E+00  0.000E+00  1.03128E+03  2.186E+00  1.200E+01  6.000E-02  1.729E+00
   1   13    7     6     5    6.5815E+01  1.2514E-02   6.5802E+01  0.000E+00  0.000E+00  0.000E+00  1.02809E+03  2.182E+00  1.200E+01  2.400E-02  1.738E-01
   1   14    9     7     1    1.5000E+02  1.1574E+00   1.4884E+02  0.000E+00  0.000E+00  0.000E+00  1.03987E+03  2.288E+00  5.530E+01  5.593E-01  6.898E-01
   1   13    8     7     2    1.4884E+02  1.5710E+00   1.4727E+02  0.000E+00  0.000E+00  0.000E+00  1.03478E+03  2.281E+00  5.526E+01  6.149E-01  8.517E-01
   1   13    7     7     3    1.4727E+02  1.1858E+00   1.4609E+02  0.000E+00  0.000E+00  0.000E+00  1.02969E+03  2.274E+00  5.523E+01  5.586E-01  7.076E-01
   1   13    6     8     1    2.1189E+02  8.8075E-01   2.1101E+02  0.000E+00  0.000E+00  0.000E+00  1.02508E+03  3.204E+00  4.646E+01  4.734E-01  6.201E-01
   1   13    5     8     2    2.1101E+02  1.6122E-01   2.1085E+02  0.000E+00  0.000E+00  0.000E+00  1.01883E+03  3.201E+00  4.641E+01  4.730E-01  1.136E-01
   1   13    4     8     3    2.1085E+02 -2.4086E+00   2.1325E+02  0.000E+00  0.000E+00  0.000E+00  1.01258E+03  3.207E+00  4.651E+01  4.739E+00 -1.694E-01
   1   13    3     8     4    2.1325E+02 -3.4375E+00   2.1669E+02  0.000E+00  0.000E+00  0.000E+00  1.00635E+03  3.224E+00  4.675E+01  4.764E+00 -2.405E-01
   1   13    2     8     5    2.1669E+02 -2.1625E+00   2.1885E+02  0.000E+00  0.000E+00  0.000E+00  1.00011E+03  3.240E+00  4.697E+01  4.787E+00 -1.506E-01
   1   13    1     8     6    2.1885E+02 -1.4170E+00   2.2027E+02  0.000E+00  0.000E+00  0.000E+00  9.95124E+02  3.249E+00  4.712E+01  2.881E+00 -1.640E-01
   1    6    8     9     1    5.4482E-04  0.0000E+00   5.4482E-04  0.000E+00  0.000E+00  0.000E+00  1.07850E+03  1.416E-03  4.000E+00  0.000E+00  1.000E+00



 UBDSV3 SAVING "     NETRECHARGE" ON UNIT 100 AT TIME STEP     5, STRESS PERIOD   8
 UBDSV3 SAVING "    NETDISCHARGE" ON UNIT 101 AT TIME STEP     5, STRESS PERIOD   8
 UBDSV3 SAVING "           GW ET" ON UNIT  61 AT TIME STEP     5, STRESS PERIOD   8
 UBDSV3 SAVING "    UZF RECHARGE" ON UNIT  61 AT TIME STEP     5, STRESS PERIOD   8
 UBDSV3 SAVING " SURFACE LEAKAGE" ON UNIT  61 AT TIME STEP     5, STRESS PERIOD   8
 UBDSV3 SAVING "       HORT+DUNN" ON UNIT  61 AT TIME STEP     5, STRESS PERIOD   8
 UBDSV3 SAVING "  STORAGE CHANGE" ON UNIT  61 AT TIME STEP     5, STRESS PERIOD   8


UNSATURATED ZONE PACKAGE VOLUMETRIC BUDGET FOR  TIME STEP     5 STRESS PERIOD    8
  ------------------------------------------------------------------------------



     CUMULATIVE VOLUMES      L**3       RATES FOR THIS TIME STEP      L**3/T
     ------------------                 ------------------------

           IN:                                      IN:
           ---                                      ---
        INFILTRATION =      183337.9720          INFILTRATION =           0.0006

          OUT:                                     OUT:
          ----                                     ----
              UZF ET =   430010277.0794                UZF ET =         217.9990
        UZF RECHARGE =   423154086.1357          UZF RECHARGE =          24.1821

            IN - OUT =  -852981025.2431              IN - OUT =        -242.1806

          STORAGE:                                 STORAGE:
          --------                                 --------
      STORAGE CHANGE =  -852955234.6974        STORAGE CHANGE =        -242.1806

 PERCENT DISCREPANCY IS DIFFERENCE BETWEEN IN-OUT MINUS CHANGE IN STORAGE
 DIVIDED BY THE AVERAGE OF IN AND OUT TIMES 100

 PERCENT DISCREPANCY =          -0.00     PERCENT DISCREPANCY =           0.00






1
  VOLUMETRIC BUDGET FOR ENTIRE MODEL AT END OF TIME STEP    5, STRESS PERIOD   8
  ------------------------------------------------------------------------------

     CUMULATIVE VOLUMES      L**3       RATES FOR THIS TIME STEP      L**3/T
     ------------------                 ------------------------

           IN:                                      IN:
           ---                                      ---
             STORAGE     =     9957721.0000               STORAGE     =           9.8858
       CONSTANT HEAD     =           0.0000         CONSTANT HEAD     =           0.0000
               WELLS     =           0.0000                 WELLS     =           0.0000
     HEAD DEP BOUNDS     =     4520003.5000       HEAD DEP BOUNDS     =           0.2736
      STREAM LEAKAGE     =   189063488.0000        STREAM LEAKAGE     =          12.1537
        UZF RECHARGE     =   423154112.0000          UZF RECHARGE     =          24.1821
               GW ET     =           0.0000                 GW ET     =           0.0000
     SURFACE LEAKAGE     =           0.0000       SURFACE LEAKAGE     =           0.0000
    SUPPLEMENTARY WELLS  =           0.0000      SUPPLEMENTARY WELLS  =           0.0000

                TOTAL IN =   626695296.0000                  TOTAL IN =          46.4952

          OUT:                                     OUT:
          ----                                     ----
             STORAGE     =   425854240.0000               STORAGE     =          22.7763
       CONSTANT HEAD     =           0.0000         CONSTANT HEAD     =           0.0000
               WELLS     =           0.0000                 WELLS     =           0.0000
     HEAD DEP BOUNDS     =     4764201.0000       HEAD DEP BOUNDS     =           0.2894
      STREAM LEAKAGE     =   178975184.0000        STREAM LEAKAGE     =           9.4256
        UZF RECHARGE     =           0.0000          UZF RECHARGE     =           0.0000
               GW ET     =    16995050.0000                 GW ET     =          14.0000
     SURFACE LEAKAGE     =           0.0000       SURFACE LEAKAGE     =           0.0000
    SUPPLEMENTARY WELLS  =       31284.0566      SUPPLEMENTARY WELLS  =       3.0880E-05

               TOTAL OUT =   626619968.0000                 TOTAL OUT =          46.4913

                IN - OUT =       75328.0000                  IN - OUT =       3.8948E-03

     PERCENT DISCREPANCY =           0.01         PERCENT DISCREPANCY =           0.01






         TIME SUMMARY AT END OF TIME STEP    5 IN STRESS PERIOD    8
                    SECONDS     MINUTES      HOURS       DAYS        YEARS
                    -----------------------------------------------------------
   TIME STEP LENGTH  87600.      1460.0      24.333      1.0139     2.77588E-03
 STRESS PERIOD TIME 4.38000E+05  7300.0      121.67      5.0694     1.38794E-02
         TOTAL TIME 1.62924E+07 2.71540E+05  4525.7      188.57     0.51627    
1
 
 SOLVING FOR HEAD 
                                                   Max.-Head-Change                         Max.-Flux-Residual
  Residual-Control   Outer-Iter.   Inner-Iter.     Column Row Layer    Maximum-Head-Change  Column Row Layer    Maximum-Flux-Residual          L2-NORM 
          0                 1           2             7   13     1      -0.3528490359E-01       7   13    1        -0.1891724756E+01      0.4252449348E+01
          0                 2           2             2   13     1       0.4476218380E-02       2   13    1         0.2554107728E+00      0.6869639912E+00
          0                 3           2             1    2     1       0.1061920345E-02       1    2    1         0.2759663124E-01      0.1607426362E+00
          0                 4           2             1    2     1       0.4767906602E-03       1    2    1         0.1239330897E-01      0.6636899836E-01
          0                 5           2             1    2     1       0.2140450789E-03       1    2    1         0.5564188670E-02      0.2949976820E-01
          0                 6           1             1    2     1       0.9608599814E-04       1    2    1         0.2497877353E-02      0.1319448710E-01
          0                 7           1             1    2     1       0.4313265137E-04       1    2    1         0.1121302430E-02      0.5906380860E-02
          0                 8           1             1    2     1       0.1936193599E-04       1    2    1         0.5033470968E-03      0.2644391229E-02
          0                 9           1             1    2     1       0.8691406527E-05       1    2    1         0.2259486243E-03      0.1184033980E-02

    ------------------------------------------------
       NWT REQUIRED            9 OUTER ITERATIONS 
       AND A TOTAL OF         14 INNER ITERATIONS.
    ------------------------------------------------

 NO OUTPUT CONTROL FOR STRESS PERIOD    8   TIME STEP    6
 
 SOLVING FOR HEAD 
                                                   Max.-Head-Change                         Max.-Flux-Residual
  Residual-Control   Outer-Iter.   Inner-Iter.     Column Row Layer    Maximum-Head-Change  Column Row Layer    Maximum-Flux-Residual          L2-NORM 
          0                 1           2             7   13     1      -0.3419753535E-01       7   13    1        -0.1833042531E+01      0.4082545110E+01
          0                 2           2             2   13     1       0.4303235649E-02       2   13    1         0.2455226646E+00      0.6718629696E+00
          0                 3           2             1    2     1       0.1061766785E-02       1    2    1         0.2759265840E-01      0.1597101913E+00
          0                 4           2             1    2     1       0.4767213681E-03       1    2    1         0.1239151506E-01      0.6613410827E-01
          0                 5           2             1    2     1       0.2140138243E-03       1    2    1         0.5563379293E-02      0.2943844485E-01
          0                 6           2             7    6     1      -0.2870400979E-03       7    6    1        -0.1581623966E-01      0.2056798202E-01
          0                 7           2             7    6     1       0.1299363704E-03       7    6    1         0.7226676252E-02      0.9368796169E-02
          0                 8           1             7    6     1      -0.4030903772E-04       7    6    1        -0.2262522562E-02      0.3497944270E-02
          0                 9           2             7    6     1       0.2078216346E-03       7    6    1         0.1176777623E-01      0.1184310354E-01
          0                10           2             7    6     1      -0.3941633641E-03       7    6    1        -0.2252465239E-01      0.2253095924E-01
                                                   Max.-Head-Change                         Max.-Flux-Residual
  Residual-Control   Outer-Iter.   Inner-Iter.     Column Row Layer    Maximum-Head-Change  Column Row Layer    Maximum-Flux-Residual          L2-NORM 
          0                11           2             7    6     1       0.2428595657E-03       7    6    1         0.1400695874E-01      0.1406690618E-01
          0                12           1             7    6     1       0.7281603514E-04       7    6    1         0.4197300080E-02      0.4208484964E-02
          0                13           1             7    6     1      -0.1448888203E-04       7    6    1        -0.8439987321E-03      0.8890988533E-03
          0                14           1             7    6     1      -0.6805536909E-04       7    6    1        -0.3960058692E-02      0.3976281618E-02
          0                15           2             7    6     1      -0.1671329302E-03       7    6    1        -0.9724431455E-02      0.9739494621E-02
          0                16           2             7    6     1       0.2650368866E-03       7    6    1         0.1556382598E-01      0.1559416288E-01
          0                17           1             7    6     1       0.7056500010E-04       7    6    1         0.4141452587E-02      0.4142840953E-02
          0                18           1             7    6     1       0.1365295112E-04       7    6    1         0.8006317250E-03      0.8064042695E-03
          0                19           1             2   13     1      -0.8799551790E-06       2   13    1        -0.5166276424E-04      0.9373834311E-04

    ------------------------------------------------
       NWT REQUIRED           19 OUTER ITERATIONS 
       AND A TOTAL OF         31 INNER ITERATIONS.
    ------------------------------------------------

 NO OUTPUT CONTROL FOR STRESS PERIOD    8   TIME STEP    7
 
 SOLVING FOR HEAD 
                                                   Max.-Head-Change                         Max.-Flux-Residual
  Residual-Control   Outer-Iter.   Inner-Iter.     Column Row Layer    Maximum-Head-Change  Column Row Layer    Maximum-Flux-Residual          L2-NORM 
          0                 1           2             7   13     1      -0.3315165600E-01       7   13    1        -0.1776608202E+01      0.3926536431E+01
          0                 2           2             2   13     1       0.4141099866E-02       2   13    1         0.2362559489E+00      0.6578894393E+00
          0                 3           2             1    2     1       0.1061617708E-02       1    2    1         0.2758880198E-01      0.1589574842E+00
          0                 4           2             1    2     1       0.4766540883E-03       1    2    1         0.1238977346E-01      0.6625323811E-01
          0                 5           2             1    2     1       0.2139834735E-03       1    2    1         0.5562593419E-02      0.2938110577E-01
          0                 6           1             1    2     1       0.9605821355E-04       1    2    1         0.2497157798E-02      0.1311382082E-01
          0                 7           1             1    2     1       0.4312012130E-04       1    2    1         0.1120977912E-02      0.5972257279E-02
          0                 8           1             7    6     1      -0.4871357202E-04       7    6    1        -0.2733239459E-02      0.3794879132E-02
          0                 9           2             7    6     1      -0.1590447455E-03       7    6    1        -0.8923411658E-02      0.9004907183E-02
          0                10           2             7    6     1       0.1981125225E-03       7    6    1         0.1121884687E-01      0.1125250725E-01
                                                   Max.-Head-Change                         Max.-Flux-Residual
  Residual-Control   Outer-Iter.   Inner-Iter.     Column Row Layer    Maximum-Head-Change  Column Row Layer    Maximum-Flux-Residual          L2-NORM 
          0                11           1             7    6     1       0.4832354878E-04       7    6    1         0.2734802053E-02      0.2745646740E-02
          0                12           1             7    6     1       0.8833195525E-05       7    6    1         0.4995173047E-03      0.5122515279E-03

    ------------------------------------------------
       NWT REQUIRED           12 OUTER ITERATIONS 
       AND A TOTAL OF         19 INNER ITERATIONS.
    ------------------------------------------------

 NO OUTPUT CONTROL FOR STRESS PERIOD    8   TIME STEP    8
 
 SOLVING FOR HEAD 
                                                   Max.-Head-Change                         Max.-Flux-Residual
  Residual-Control   Outer-Iter.   Inner-Iter.     Column Row Layer    Maximum-Head-Change  Column Row Layer    Maximum-Flux-Residual          L2-NORM 
          0                 1           2             7   13     1      -0.3214573760E-01       7   13    1        -0.1722322951E+01      0.3783524200E+01
          0                 2           2             2   13     1       0.3994390239E-02       2   13    1         0.2278723484E+00      0.6452388614E+00
          0                 3           2             1    2     1       0.1061457792E-02       1    2    1         0.2758466375E-01      0.1582541503E+00
          0                 4           2             1    2     1       0.4765819440E-03       1    2    1         0.1238790538E-01      0.6578631252E-01
          0                 5           2             1    2     1       0.2139509389E-03       1    2    1         0.5561750768E-02      0.2924673214E-01
          0                 6           1             1    2     1       0.9604354354E-04       1    2    1         0.2496777810E-02      0.1308152918E-01
          0                 7           1             1    2     1       0.4311350737E-04       1    2    1         0.1120806584E-02      0.5856658274E-02
          0                 8           1             1    2     1       0.1935330365E-04       1    2    1         0.5031235036E-03      0.2625846066E-02
          0                 9           1             1    2     1       0.8687514049E-05       1    2    1         0.2258478008E-03      0.1195794121E-02

    ------------------------------------------------
       NWT REQUIRED            9 OUTER ITERATIONS 
       AND A TOTAL OF         14 INNER ITERATIONS.
    ------------------------------------------------

 NO OUTPUT CONTROL FOR STRESS PERIOD    8   TIME STEP    9
 
 SOLVING FOR HEAD 
                                                   Max.-Head-Change                         Max.-Flux-Residual
  Residual-Control   Outer-Iter.   Inner-Iter.     Column Row Layer    Maximum-Head-Change  Column Row Layer    Maximum-Flux-Residual          L2-NORM 
          0                 1           2             7   13     1      -0.3117794591E-01       7   13    1        -0.1670120654E+01      0.3652061909E+01
          0                 2           2             2   13     1       0.3863025216E-02       2   13    1         0.2203669305E+00      0.6338455442E+00
          0                 3           2             1    2     1       0.1061299005E-02       1    2    1         0.2758055492E-01      0.1575934940E+00
          0                 4           2             1    2     1       0.4765103057E-03       1    2    1         0.1238605046E-01      0.6572115283E-01
          0                 5           2             1    2     1       0.2139186318E-03       7    6    1        -0.1037406739E-01      0.3097040460E-01
          0                 6           1             1    2     1       0.9602897607E-04       7    6    1        -0.3393446532E-02      0.1350330395E-01
          0                 7           2             7    6     1       0.2395719610E-03       7    6    1         0.1332076252E-01      0.1456604224E-01
          0                 8           1             7    6     1       0.6485825893E-04       7    6    1         0.3604128140E-02      0.4454488471E-02
          0                 9           1             7    6     1       0.1096678111E-04       7    6    1         0.6088254620E-03      0.1321308292E-02
          0                10           1             1    2     1       0.3899136123E-05       1    2    1         0.1013652989E-03      0.5283641899E-03

    ------------------------------------------------
       NWT REQUIRED           10 OUTER ITERATIONS 
       AND A TOTAL OF         16 INNER ITERATIONS.
    ------------------------------------------------

 OUTPUT CONTROL FOR STRESS PERIOD    8   TIME STEP   10
    PRINT BUDGET
    SAVE BUDGET
 UBUDSV SAVING "         STORAGE" ON UNIT102 AT TIME STEP    10, STRESS PERIOD    8
 UBUDSV SAVING "   CONSTANT HEAD" ON UNIT102 AT TIME STEP    10, STRESS PERIOD    8
 UBUDSV SAVING "FLOW RIGHT FACE " ON UNIT102 AT TIME STEP    10, STRESS PERIOD    8
 UBUDSV SAVING "FLOW FRONT FACE " ON UNIT102 AT TIME STEP    10, STRESS PERIOD    8

  HEAD DEP BOUNDS   PERIOD    8   STEP    10
 BOUNDARY      1   LAYER   1   ROW    13   COL     1   RATE   -0.285662    
 BOUNDARY      2   LAYER   1   ROW    14   COL     9   RATE    0.273555    



 STREAM LISTING     PERIOD      8   STEP       10

 LAYER ROW COL. STREAM  RCH.  FLOW INTO     FLOW TO   FLOW OUT OF   OVRLND.     DIRECT     STREAM       STREAM     STREAM     STREAM   STREAMBED  STREAMBED
                SEG.NO.  NO.  STRM. RCH.    AQUIFER    STRM. RCH.    RUNOFF     PRECIP       ET          HEAD       DEPTH      WIDTH   CONDCTNC.   GRADIENT

   1    1    1     1     1    6.3000E+01  3.8236E-01   6.2618E+01  0.000E+00  0.000E+00  0.000E+00  1.09461E+03  1.562E+00  1.863E+01  8.382E-02  1.521E+00
   1    2    2     1     2    6.2618E+01  5.9218E-01   6.2025E+01  0.000E+00  0.000E+00  0.000E+00  1.08961E+03  1.556E+00  1.857E+01  1.300E-01  1.519E+00
   1    3    3     1     3    6.2025E+01  5.0506E-01   6.1520E+01  0.000E+00  0.000E+00  0.000E+00  1.08397E+03  1.549E+00  1.850E+01  1.110E-01  1.516E+00
   1    3    4     1     4    6.1520E+01  4.6510E-01   6.1055E+01  0.000E+00  0.000E+00  0.000E+00  1.07895E+03  1.543E+00  1.845E+01  1.024E-01  1.514E+00
   1    4    5     2     1    5.9055E+01  3.9145E-01   5.8664E+01  0.000E+00  0.000E+00  0.000E+00  1.07395E+03  2.019E+00  1.200E+01  7.800E-02  1.673E+00
   1    5    6     2     2    5.8664E+01  3.0068E-01   5.8363E+01  0.000E+00  0.000E+00  0.000E+00  1.06852E+03  2.011E+00  1.200E+01  6.000E-02  1.670E+00
   1    6    6     2     3    5.8363E+01  3.0031E-01   5.8063E+01  0.000E+00  0.000E+00  0.000E+00  1.06380E+03  2.005E+00  1.200E+01  6.000E-02  1.668E+00
   1    7    6     2     4    5.8063E+01  2.9994E-01   5.7763E+01  0.000E+00  0.000E+00  0.000E+00  1.05907E+03  1.999E+00  1.200E+01  6.000E-02  1.666E+00
   1    8    6     2     5    5.7763E+01  2.9957E-01   5.7463E+01  0.000E+00  0.000E+00  0.000E+00  1.05435E+03  1.993E+00  1.200E+01  6.000E-02  1.664E+00
   1    3    5     3     1    2.0000E+00  2.8252E-01   1.7175E+00  0.000E+00  0.000E+00  0.000E+00  1.07555E+03  1.909E+00  9.636E+00  7.227E-02  1.955E+00
   1    3    6     3     2    1.7175E+00  2.4905E-01   1.4684E+00  0.000E+00  0.000E+00  0.000E+00  1.07264E+03  1.727E+00  8.909E+00  6.682E-02  1.864E+00
   1    3    7     3     3    1.4684E+00  1.9718E-01   1.2712E+00  0.000E+00  0.000E+00  0.000E+00  1.06987E+03  1.555E+00  8.218E+00  5.547E-02  1.777E+00
   1    4    8     3     4    1.2712E+00  2.2567E-01   1.0456E+00  0.000E+00  0.000E+00  0.000E+00  1.06682E+03  1.364E+00  7.455E+00  6.709E-02  1.682E+00
   1    5    8     3     5    1.0456E+00  1.5790E-01   8.8768E-01  0.000E+00  0.000E+00  0.000E+00  1.06362E+03  1.164E+00  6.655E+00  4.991E-02  1.582E+00
   1    6    8     3     6    8.8768E-01  5.5980E-02   8.3170E-01  0.000E+00  0.000E+00  0.000E+00  1.06158E+03  1.036E+00  6.145E+00  1.844E-02  1.518E+00
   1    5   10     4     1    1.0000E+01  9.0919E-02   9.9091E+00  0.000E+00  0.000E+00  0.000E+00  1.07836E+03  6.368E-01  1.000E+01  2.500E-02  1.212E+00
   1    5    9     4     2    9.9091E+00  1.8158E-01   9.7275E+00  0.000E+00  0.000E+00  0.000E+00  1.07154E+03  6.315E-01  1.000E+01  5.000E-02  1.211E+00
   1    6    8     4     3    9.7275E+00  1.2689E-01   9.6006E+00  0.000E+00  0.000E+00  0.000E+00  1.06381E+03  6.256E-01  1.000E+01  3.500E-02  1.209E+00
   1    6    8     5     1    1.0432E+01  2.2686E-01   1.0205E+01  0.000E+00  0.000E+00  0.000E+00  1.05868E+03  6.790E-01  1.542E+01  6.166E-02  1.226E+00
   1    7    7     5     2    1.0205E+01  2.7894E-01   9.9265E+00  0.000E+00  0.000E+00  0.000E+00  1.05417E+03  6.732E-01  1.519E+01  7.594E-02  1.224E+00
   1    8    7     5     3    9.9265E+00  1.9221E-01   9.7343E+00  0.000E+00  0.000E+00  0.000E+00  1.04992E+03  6.676E-01  1.497E+01  5.241E-02  1.223E+00
   1    8    6     5     4    9.7343E+00  1.3577E-01   9.5985E+00  0.000E+00  0.000E+00  0.000E+00  1.04691E+03  6.637E-01  1.482E+01  3.706E-02  1.221E+00
   1    9    6     6     1    6.7011E+01  3.1219E-01   6.6699E+01  0.000E+00  0.000E+00  0.000E+00  1.04493E+03  2.203E+00  1.200E+01  6.000E-02  1.734E+00
   1   10    7     6     2    6.6699E+01  3.1182E-01   6.6387E+01  0.000E+00  0.000E+00  0.000E+00  1.04038E+03  2.197E+00  1.200E+01  6.000E-02  1.732E+00
   1   11    7     6     3    6.6387E+01  3.1145E-01   6.6075E+01  0.000E+00  0.000E+00  0.000E+00  1.03583E+03  2.191E+00  1.200E+01  6.000E-02  1.730E+00
   1   12    7     6     4    6.6075E+01  3.1108E-01   6.5764E+01  0.000E+00  0.000E+00  0.000E+00  1.03128E+03  2.185E+00  1.200E+01  6.000E-02  1.728E+00
   1   13    7     6     5    6.5764E+01  1.6105E-02   6.5748E+01  0.000E+00  0.000E+00  0.000E+00  1.02809E+03  2.181E+00  1.200E+01  2.400E-02  2.237E-01
   1   14    9     7     1    1.5000E+02  1.1565E+00   1.4884E+02  0.000E+00  0.000E+00  0.000E+00  1.03987E+03  2.288E+00  5.530E+01  5.593E-01  6.892E-01
   1   13    8     7     2    1.4884E+02  1.5724E+00   1.4727E+02  0.000E+00  0.000E+00  0.000E+00  1.03478E+03  2.281E+00  5.526E+01  6.149E-01  8.525E-01
   1   13    7     7     3    1.4727E+02  1.2698E+00   1.4600E+02  0.000E+00  0.000E+00  0.000E+00  1.02969E+03  2.273E+00  5.523E+01  5.586E-01  7.578E-01
   1   13    6     8     1    2.1175E+02  9.4343E-01   2.1081E+02  0.000E+00  0.000E+00  0.000E+00  1.02508E+03  3.203E+00  4.644E+01  4.733E-01  6.645E-01
   1   13    5     8     2    2.1081E+02  2.0792E-01   2.1060E+02  0.000E+00  0.000E+00  0.000E+00  1.01882E+03  3.200E+00  4.640E+01  4.728E-01  1.466E-01
   1   13    4     8     3    2.1060E+02 -2.0372E+00   2.1264E+02  0.000E+00  0.000E+00  0.000E+00  1.01258E+03  3.205E+00  4.647E+01  4.736E+00 -1.434E-01
   1   13    3     8     4    2.1264E+02 -3.0683E+00   2.1570E+02  0.000E+00  0.000E+00  0.000E+00  1.00634E+03  3.219E+00  4.668E+01  4.757E+00 -2.150E-01
   1   13    2     8     5    2.1570E+02 -1.7144E+00   2.1742E+02  0.000E+00  0.000E+00  0.000E+00  1.00011E+03  3.233E+00  4.687E+01  4.777E+00 -1.196E-01
   1   13    1     8     6    2.1742E+02 -1.1540E+00   2.1857E+02  0.000E+00  0.000E+00  0.000E+00  9.95116E+02  3.241E+00  4.699E+01  2.873E+00 -1.339E-01
   1    6    8     9     1    5.1179E-02  0.0000E+00   5.1179E-02  0.000E+00  0.000E+00  0.000E+00  1.07852E+03  2.237E-02  4.000E+00  0.000E+00  1.007E+00



 UBDSV3 SAVING "     NETRECHARGE" ON UNIT 100 AT TIME STEP    10, STRESS PERIOD   8
 UBDSV3 SAVING "    NETDISCHARGE" ON UNIT 101 AT TIME STEP    10, STRESS PERIOD   8
 UBDSV3 SAVING "           GW ET" ON UNIT  61 AT TIME STEP    10, STRESS PERIOD   8
 UBDSV3 SAVING "    UZF RECHARGE" ON UNIT  61 AT TIME STEP    10, STRESS PERIOD   8
 UBDSV3 SAVING " SURFACE LEAKAGE" ON UNIT  61 AT TIME STEP    10, STRESS PERIOD   8
 UBDSV3 SAVING "       HORT+DUNN" ON UNIT  61 AT TIME STEP    10, STRESS PERIOD   8
 UBDSV3 SAVING "  STORAGE CHANGE" ON UNIT  61 AT TIME STEP    10, STRESS PERIOD   8


UNSATURATED ZONE PACKAGE VOLUMETRIC BUDGET FOR  TIME STEP    10 STRESS PERIOD    8
  ------------------------------------------------------------------------------



     CUMULATIVE VOLUMES      L**3       RATES FOR THIS TIME STEP      L**3/T
     ------------------                 ------------------------

           IN:                                      IN:
           ---                                      ---
        INFILTRATION =      209527.7165          INFILTRATION =           0.0520

          OUT:                                     OUT:
          ----                                     ----
              UZF ET =   527328907.9544                UZF ET =           3.9983
        UZF RECHARGE =   433667469.5327          UZF RECHARGE =          23.8992

            IN - OUT =  -960786849.7706              IN - OUT =         -27.8455

          STORAGE:                                 STORAGE:
          --------                                 --------
      STORAGE CHANGE =  -960761059.1803        STORAGE CHANGE =         -27.8455

 PERCENT DISCREPANCY IS DIFFERENCE BETWEEN IN-OUT MINUS CHANGE IN STORAGE
 DIVIDED BY THE AVERAGE OF IN AND OUT TIMES 100

 PERCENT DISCREPANCY =          -0.00     PERCENT DISCREPANCY =           0.00






1
  VOLUMETRIC BUDGET FOR ENTIRE MODEL AT END OF TIME STEP   10, STRESS PERIOD   8
  ------------------------------------------------------------------------------

     CUMULATIVE VOLUMES      L**3       RATES FOR THIS TIME STEP      L**3/T
     ------------------                 ------------------------

           IN:                                      IN:
           ---                                      ---
             STORAGE     =    13758655.0000               STORAGE     =           7.9943
       CONSTANT HEAD     =           0.0000         CONSTANT HEAD     =           0.0000
               WELLS     =           0.0000                 WELLS     =           0.0000
     HEAD DEP BOUNDS     =     4639831.5000       HEAD DEP BOUNDS     =           0.2736
      STREAM LEAKAGE     =   194439264.0000        STREAM LEAKAGE     =          12.3509
        UZF RECHARGE     =   433667520.0000          UZF RECHARGE     =          23.8992
               GW ET     =           0.0000                 GW ET     =           0.0000
     SURFACE LEAKAGE     =           0.0000       SURFACE LEAKAGE     =           0.0000
    SUPPLEMENTARY WELLS  =           0.0000      SUPPLEMENTARY WELLS  =           0.0000

                TOTAL IN =   646505280.0000                  TOTAL IN =          44.5180

          OUT:                                     OUT:
          ----                                     ----
             STORAGE     =   435677312.0000               STORAGE     =          22.2555
       CONSTANT HEAD     =           0.0000         CONSTANT HEAD     =           0.0000
               WELLS     =           0.0000                 WELLS     =           0.0000
     HEAD DEP BOUNDS     =     4889948.0000       HEAD DEP BOUNDS     =           0.2857
      STREAM LEAKAGE     =   182702992.0000        STREAM LEAKAGE     =           7.9740
        UZF RECHARGE     =           0.0000          UZF RECHARGE     =           0.0000
               GW ET     =    23127050.0000                 GW ET     =          14.0000
     SURFACE LEAKAGE     =           0.0000       SURFACE LEAKAGE     =           0.0000
    SUPPLEMENTARY WELLS  =       31773.3008      SUPPLEMENTARY WELLS  =       1.3395E-03

               TOTAL OUT =   646429056.0000                 TOTAL OUT =          44.5165

                IN - OUT =       76224.0000                  IN - OUT =       1.4877E-03

     PERCENT DISCREPANCY =           0.01         PERCENT DISCREPANCY =           0.00






         TIME SUMMARY AT END OF TIME STEP   10 IN STRESS PERIOD    8
                    SECONDS     MINUTES      HOURS       DAYS        YEARS
                    -----------------------------------------------------------
   TIME STEP LENGTH  87600.      1460.0      24.333      1.0139     2.77588E-03
 STRESS PERIOD TIME 8.76000E+05  14600.      243.33      10.139     2.77588E-02
         TOTAL TIME 1.67304E+07 2.78840E+05  4647.3      193.64     0.53015    
1
 
 SOLVING FOR HEAD 
                                                   Max.-Head-Change                         Max.-Flux-Residual
  Residual-Control   Outer-Iter.   Inner-Iter.     Column Row Layer    Maximum-Head-Change  Column Row Layer    Maximum-Flux-Residual          L2-NORM 
          0                 1           2             7   13     1      -0.3024664249E-01       7   13    1        -0.1619893313E+01      0.3530886796E+01
          0                 2           2             7   13     1       0.2995125587E-02       7   13    1         0.1619548234E+00      0.5125174135E+00
          0                 3           2             1    2     1       0.1061136761E-02       1    2    1         0.2757635617E-01      0.1538307084E+00
          0                 4           2             1    2     1       0.4764371162E-03       1    2    1         0.1238415521E-01      0.6542711822E-01
          0                 5           2             1    2     1       0.2138856276E-03       1    2    1         0.5560059176E-02      0.2911049084E-01
          0                 6           1             1    2     1       0.9601409621E-04       1    2    1         0.2496015018E-02      0.1302091663E-01
          0                 7           1             1    2     1       0.4310023072E-04       1    2    1         0.1120462655E-02      0.5828800657E-02
          0                 8           1             1    2     1       0.1934731800E-04       1    2    1         0.5029684450E-03      0.2609708227E-02
          0                 9           1             1    2     1       0.8684815601E-05       1    2    1         0.2257778992E-03      0.1168528666E-02

    ------------------------------------------------
       NWT REQUIRED            9 OUTER ITERATIONS 
       AND A TOTAL OF         14 INNER ITERATIONS.
    ------------------------------------------------

 NO OUTPUT CONTROL FOR STRESS PERIOD    8   TIME STEP   11
 
 SOLVING FOR HEAD 
                                                   Max.-Head-Change                         Max.-Flux-Residual
  Residual-Control   Outer-Iter.   Inner-Iter.     Column Row Layer    Maximum-Head-Change  Column Row Layer    Maximum-Flux-Residual          L2-NORM 
          0                 1           2             7   13     1      -0.2935314245E-01       7   13    1        -0.1571721075E+01      0.3411240867E+01
          0                 2           2             2   13     1       0.3612197156E-02       2   13    1         0.2060381495E+00      0.6123780185E+00
          0                 3           2             7    6     1      -0.7249894454E-01       7    6    1        -0.3994721171E+01      0.3997776669E+01
          0                 4           2             7    6     1       0.7470799657E-01       7    6    1         0.4154415059E+01      0.4159815768E+01
          0                 5           2             7    6     1      -0.1704663818E-02       7    6    1        -0.9618338059E-01      0.1039827575E+00
          0                 6           2             7    6     1      -0.3114794972E-03       7    6    1        -0.1755827874E-01      0.2211799634E-01
          0                 7           1             7    6     1      -0.5698555967E-04       7    6    1        -0.3209428554E-02      0.6660382229E-02
          0                 8           1             1    2     1       0.1934429465E-04       7    6    1        -0.5873672537E-03      0.2669917527E-02
          0                 9           1             1    2     1       0.8683452746E-05       1    2    1         0.2257425898E-03      0.1170771377E-02

    ------------------------------------------------
       NWT REQUIRED            9 OUTER ITERATIONS 
       AND A TOTAL OF         15 INNER ITERATIONS.
    ------------------------------------------------

 NO OUTPUT CONTROL FOR STRESS PERIOD    8   TIME STEP   12
 
 SOLVING FOR HEAD 
                                                   Max.-Head-Change                         Max.-Flux-Residual
  Residual-Control   Outer-Iter.   Inner-Iter.     Column Row Layer    Maximum-Head-Change  Column Row Layer    Maximum-Flux-Residual          L2-NORM 
          0                 1           2             7   13     1      -0.2849283857E-01       7   13    1        -0.1525349152E+01      0.3301236330E+01
          0                 2           2             2   13     1       0.3495057684E-02       2   13    1         0.1993475101E+00      0.6024431536E+00
          0                 3           2             7    6     1      -0.7249886666E-01       7    6    1        -0.3994719442E+01      0.3997752675E+01
          0                 4           2             7    6     1       0.7470775654E-01       7    6    1         0.4154403869E+01      0.4157977254E+01
          0                 5           2             7    6     1      -0.1704491086E-02       7    6    1        -0.9617376314E-01      0.1035191128E+00
          0                 6           2             7    6     1      -0.3114473506E-03       7    6    1        -0.1755648978E-01      0.2209206435E-01
          0                 7           1             7    6     1      -0.5697957247E-04       7    6    1        -0.3209095553E-02      0.6650389549E-02
          0                 8           1             1    2     1       0.1934124030E-04       7    6    1        -0.5873052291E-03      0.2665070231E-02
          0                 9           1             1    2     1       0.8682075884E-05       1    2    1         0.2257069214E-03      0.1168567062E-02

    ------------------------------------------------
       NWT REQUIRED            9 OUTER ITERATIONS 
       AND A TOTAL OF         15 INNER ITERATIONS.
    ------------------------------------------------

 NO OUTPUT CONTROL FOR STRESS PERIOD    8   TIME STEP   13
 
 SOLVING FOR HEAD 
                                                   Max.-Head-Change                         Max.-Flux-Residual
  Residual-Control   Outer-Iter.   Inner-Iter.     Column Row Layer    Maximum-Head-Change  Column Row Layer    Maximum-Flux-Residual          L2-NORM 
          0                 1           2             7   13     1      -0.2766351900E-01       7   13    1        -0.1480637684E+01      0.3201541260E+01
          0                 2           2             2   13     1       0.3390049114E-02       2   13    1         0.1933508849E+00      0.5934421456E+00
          0                 3           2             7    6     1      -0.7249878184E-01       7    6    1        -0.3994717318E+01      0.3997730145E+01
          0                 4           2             7    6     1       0.7470742874E-01       7    6    1         0.4154387800E+01      0.4158413471E+01
          0                 5           2             7    6     1      -0.1704245667E-02       7    6    1        -0.9616006580E-01      0.1035995969E+00
          0                 6           2             7    6     1      -0.3114018249E-03       7    6    1        -0.1755395041E-01      0.2207740822E-01
          0                 7           1             7    6     1      -0.5697112122E-04       7    6    1        -0.3208624416E-02      0.6640135744E-02
          0                 8           1             1    2     1       0.1933832675E-04       7    6    1        -0.5872177408E-03      0.2660016285E-02
          0                 9           1             1    2     1       0.8680762301E-05       1    2    1         0.2256728937E-03      0.1166261546E-02

    ------------------------------------------------
       NWT REQUIRED            9 OUTER ITERATIONS 
       AND A TOTAL OF         15 INNER ITERATIONS.
    ------------------------------------------------

 NO OUTPUT CONTROL FOR STRESS PERIOD    8   TIME STEP   14
 
 SOLVING FOR HEAD 
                                                   Max.-Head-Change                         Max.-Flux-Residual
  Residual-Control   Outer-Iter.   Inner-Iter.     Column Row Layer    Maximum-Head-Change  Column Row Layer    Maximum-Flux-Residual          L2-NORM 
          0                 1           2             7   13     1      -0.2686500271E-01       7   13    1        -0.1437575965E+01      0.3109134055E+01
          0                 2           2             2   13     1       0.3292606922E-02       2   13    1         0.1877871091E+00      0.5850720378E+00
          0                 3           2             7    6     1      -0.7249869054E-01       7    6    1        -0.3994714830E+01      0.3997708225E+01
          0                 4           2             7    6     1       0.7470702089E-01       7    6    1         0.4154367284E+01      0.4157258969E+01
          0                 5           2             7    6     1      -0.1703933921E-02       7    6    1        -0.9614264595E-01      0.1032959049E+00
          0                 6           2             7    6     1      -0.3113440873E-03       7    6    1        -0.1755072626E-01      0.2205484658E-01
          0                 7           1             7    6     1      -0.5696041839E-04       7    6    1        -0.3208027149E-02      0.6630536147E-02
          0                 8           1             1    2     1       0.1933521087E-04       7    6    1        -0.5871070009E-03      0.2655397588E-02
          0                 9           1             1    2     1       0.8679357928E-05       1    2    1         0.2256365013E-03      0.1164165746E-02

    ------------------------------------------------
       NWT REQUIRED            9 OUTER ITERATIONS 
       AND A TOTAL OF         15 INNER ITERATIONS.
    ------------------------------------------------

 OUTPUT CONTROL FOR STRESS PERIOD    8   TIME STEP   15
    PRINT BUDGET
    PRINT HEAD FOR ALL LAYERS
    SAVE HEAD FOR ALL LAYERS
    SAVE BUDGET
 UBUDSV SAVING "         STORAGE" ON UNIT102 AT TIME STEP    15, STRESS PERIOD    8
 UBUDSV SAVING "   CONSTANT HEAD" ON UNIT102 AT TIME STEP    15, STRESS PERIOD    8
 UBUDSV SAVING "FLOW RIGHT FACE " ON UNIT102 AT TIME STEP    15, STRESS PERIOD    8
 UBUDSV SAVING "FLOW FRONT FACE " ON UNIT102 AT TIME STEP    15, STRESS PERIOD    8

  HEAD DEP BOUNDS   PERIOD    8   STEP    15
 BOUNDARY      1   LAYER   1   ROW    13   COL     1   RATE   -0.282544    
 BOUNDARY      2   LAYER   1   ROW    14   COL     9   RATE    0.273492    



 STREAM LISTING     PERIOD      8   STEP       15

 LAYER ROW COL. STREAM  RCH.  FLOW INTO     FLOW TO   FLOW OUT OF   OVRLND.     DIRECT     STREAM       STREAM     STREAM     STREAM   STREAMBED  STREAMBED
                SEG.NO.  NO.  STRM. RCH.    AQUIFER    STRM. RCH.    RUNOFF     PRECIP       ET          HEAD       DEPTH      WIDTH   CONDCTNC.   GRADIENT

   1    1    1     1     1    6.3000E+01  3.8236E-01   6.2618E+01  0.000E+00  0.000E+00  0.000E+00  1.09461E+03  1.562E+00  1.863E+01  8.382E-02  1.521E+00
   1    2    2     1     2    6.2618E+01  5.9218E-01   6.2025E+01  0.000E+00  0.000E+00  0.000E+00  1.08961E+03  1.556E+00  1.857E+01  1.300E-01  1.519E+00
   1    3    3     1     3    6.2025E+01  5.0506E-01   6.1520E+01  0.000E+00  0.000E+00  0.000E+00  1.08397E+03  1.549E+00  1.850E+01  1.110E-01  1.516E+00
   1    3    4     1     4    6.1520E+01  4.6510E-01   6.1055E+01  0.000E+00  0.000E+00  0.000E+00  1.07895E+03  1.543E+00  1.845E+01  1.024E-01  1.514E+00
   1    4    5     2     1    5.9055E+01  3.9145E-01   5.8664E+01  0.000E+00  0.000E+00  0.000E+00  1.07395E+03  2.019E+00  1.200E+01  7.800E-02  1.673E+00
   1    5    6     2     2    5.8664E+01  3.0068E-01   5.8363E+01  0.000E+00  0.000E+00  0.000E+00  1.06852E+03  2.011E+00  1.200E+01  6.000E-02  1.670E+00
   1    6    6     2     3    5.8363E+01  3.0031E-01   5.8063E+01  0.000E+00  0.000E+00  0.000E+00  1.06380E+03  2.005E+00  1.200E+01  6.000E-02  1.668E+00
   1    7    6     2     4    5.8063E+01  2.9994E-01   5.7763E+01  0.000E+00  0.000E+00  0.000E+00  1.05907E+03  1.999E+00  1.200E+01  6.000E-02  1.666E+00
   1    8    6     2     5    5.7763E+01  2.9957E-01   5.7463E+01  0.000E+00  0.000E+00  0.000E+00  1.05435E+03  1.993E+00  1.200E+01  6.000E-02  1.664E+00
   1    3    5     3     1    2.0000E+00  2.8252E-01   1.7175E+00  0.000E+00  0.000E+00  0.000E+00  1.07555E+03  1.909E+00  9.636E+00  7.227E-02  1.955E+00
   1    3    6     3     2    1.7175E+00  2.4905E-01   1.4684E+00  0.000E+00  0.000E+00  0.000E+00  1.07264E+03  1.727E+00  8.909E+00  6.682E-02  1.864E+00
   1    3    7     3     3    1.4684E+00  1.9718E-01   1.2712E+00  0.000E+00  0.000E+00  0.000E+00  1.06987E+03  1.555E+00  8.218E+00  5.547E-02  1.777E+00
   1    4    8     3     4    1.2712E+00  2.2567E-01   1.0456E+00  0.000E+00  0.000E+00  0.000E+00  1.06682E+03  1.364E+00  7.455E+00  6.709E-02  1.682E+00
   1    5    8     3     5    1.0456E+00  1.5790E-01   8.8768E-01  0.000E+00  0.000E+00  0.000E+00  1.06362E+03  1.164E+00  6.655E+00  4.991E-02  1.582E+00
   1    6    8     3     6    8.8768E-01  5.5980E-02   8.3170E-01  0.000E+00  0.000E+00  0.000E+00  1.06158E+03  1.036E+00  6.145E+00  1.844E-02  1.518E+00
   1    5   10     4     1    1.0000E+01  9.0919E-02   9.9091E+00  0.000E+00  0.000E+00  0.000E+00  1.07836E+03  6.368E-01  1.000E+01  2.500E-02  1.212E+00
   1    5    9     4     2    9.9091E+00  1.8158E-01   9.7275E+00  0.000E+00  0.000E+00  0.000E+00  1.07154E+03  6.315E-01  1.000E+01  5.000E-02  1.211E+00
   1    6    8     4     3    9.7275E+00  1.2689E-01   9.6006E+00  0.000E+00  0.000E+00  0.000E+00  1.06381E+03  6.256E-01  1.000E+01  3.500E-02  1.209E+00
   1    6    8     5     1    1.0432E+01  2.2686E-01   1.0205E+01  0.000E+00  0.000E+00  0.000E+00  1.05868E+03  6.790E-01  1.542E+01  6.166E-02  1.226E+00
   1    7    7     5     2    1.0205E+01  2.7894E-01   9.9265E+00  0.000E+00  0.000E+00  0.000E+00  1.05417E+03  6.732E-01  1.519E+01  7.594E-02  1.224E+00
   1    8    7     5     3    9.9265E+00  1.9221E-01   9.7343E+00  0.000E+00  0.000E+00  0.000E+00  1.04992E+03  6.676E-01  1.497E+01  5.241E-02  1.223E+00
   1    8    6     5     4    9.7343E+00  1.3577E-01   9.5985E+00  0.000E+00  0.000E+00  0.000E+00  1.04691E+03  6.637E-01  1.482E+01  3.706E-02  1.221E+00
   1    9    6     6     1    6.3624E+01  3.0813E-01   6.3316E+01  0.000E+00  0.000E+00  0.000E+00  1.04486E+03  2.136E+00  1.200E+01  6.000E-02  1.712E+00
   1   10    7     6     2    6.3316E+01  3.0776E-01   6.3008E+01  0.000E+00  0.000E+00  0.000E+00  1.04031E+03  2.129E+00  1.200E+01  6.000E-02  1.710E+00
   1   11    7     6     3    6.3008E+01  3.0739E-01   6.2700E+01  0.000E+00  0.000E+00  0.000E+00  1.03576E+03  2.123E+00  1.200E+01  6.000E-02  1.708E+00
   1   12    7     6     4    6.2700E+01  3.0701E-01   6.2393E+01  0.000E+00  0.000E+00  0.000E+00  1.03121E+03  2.117E+00  1.200E+01  6.000E-02  1.706E+00
   1   13    7     6     5    6.2393E+01  1.7588E-02   6.2376E+01  0.000E+00  0.000E+00  0.000E+00  1.02802E+03  2.114E+00  1.200E+01  2.400E-02  2.443E-01
   1   14    9     7     1    1.5000E+02  1.1556E+00   1.4884E+02  0.000E+00  0.000E+00  0.000E+00  1.03987E+03  2.288E+00  5.530E+01  5.593E-01  6.887E-01
   1   13    8     7     2    1.4884E+02  1.5770E+00   1.4727E+02  0.000E+00  0.000E+00  0.000E+00  1.03478E+03  2.281E+00  5.526E+01  6.149E-01  8.549E-01
   1   13    7     7     3    1.4727E+02  1.3421E+00   1.4593E+02  0.000E+00  0.000E+00  0.000E+00  1.02969E+03  2.273E+00  5.523E+01  5.586E-01  8.009E-01
   1   13    6     8     1    2.0830E+02  9.8485E-01   2.0732E+02  0.000E+00  0.000E+00  0.000E+00  1.02506E+03  3.183E+00  4.616E+01  4.703E-01  6.980E-01
   1   13    5     8     2    2.0732E+02  2.3954E-01   2.0708E+02  0.000E+00  0.000E+00  0.000E+00  1.01880E+03  3.180E+00  4.610E+01  4.698E-01  1.699E-01
   1   13    4     8     3    2.0708E+02 -1.8443E+00   2.0892E+02  0.000E+00  0.000E+00  0.000E+00  1.01256E+03  3.184E+00  4.617E+01  4.705E+00 -1.307E-01
   1   13    3     8     4    2.0892E+02 -2.8729E+00   2.1179E+02  0.000E+00  0.000E+00  0.000E+00  1.00632E+03  3.198E+00  4.637E+01  4.725E+00 -2.027E-01
   1   13    2     8     5    2.1179E+02 -1.4621E+00   2.1326E+02  0.000E+00  0.000E+00  0.000E+00  1.00009E+03  3.210E+00  4.655E+01  4.743E+00 -1.028E-01
   1   13    1     8     6    2.1326E+02 -9.7950E-01   2.1424E+02  0.000E+00  0.000E+00  0.000E+00  9.95092E+02  3.217E+00  4.665E+01  2.852E+00 -1.145E-01
   1    6    8     9     1    3.4382E+00  0.0000E+00   3.4382E+00  0.000E+00  0.000E+00  0.000E+00  1.07878E+03  2.840E-01  4.000E+00  0.000E+00  1.095E+00



 UBDSV3 SAVING "     NETRECHARGE" ON UNIT 100 AT TIME STEP    15, STRESS PERIOD   8
 UBDSV3 SAVING "    NETDISCHARGE" ON UNIT 101 AT TIME STEP    15, STRESS PERIOD   8
 UBDSV3 SAVING "           GW ET" ON UNIT  61 AT TIME STEP    15, STRESS PERIOD   8
 UBDSV3 SAVING "    UZF RECHARGE" ON UNIT  61 AT TIME STEP    15, STRESS PERIOD   8
 UBDSV3 SAVING " SURFACE LEAKAGE" ON UNIT  61 AT TIME STEP    15, STRESS PERIOD   8
 UBDSV3 SAVING "       HORT+DUNN" ON UNIT  61 AT TIME STEP    15, STRESS PERIOD   8
 UBDSV3 SAVING "  STORAGE CHANGE" ON UNIT  61 AT TIME STEP    15, STRESS PERIOD   8


UNSATURATED ZONE PACKAGE VOLUMETRIC BUDGET FOR  TIME STEP    15 STRESS PERIOD    8
  ------------------------------------------------------------------------------



     CUMULATIVE VOLUMES      L**3       RATES FOR THIS TIME STEP      L**3/T
     ------------------                 ------------------------

           IN:                                      IN:
           ---                                      ---
        INFILTRATION =     2099208.3103          INFILTRATION =           3.4382

          OUT:                                     OUT:
          ----                                     ----
              UZF ET =   529080907.9544                UZF ET =           4.0000
        UZF RECHARGE =   444073191.5806          UZF RECHARGE =          23.6746

            IN - OUT =  -971054891.2247              IN - OUT =         -24.2365

          STORAGE:                                 STORAGE:
          --------                                 --------
      STORAGE CHANGE =  -971029100.5697        STORAGE CHANGE =         -24.2365

 PERCENT DISCREPANCY IS DIFFERENCE BETWEEN IN-OUT MINUS CHANGE IN STORAGE
 DIVIDED BY THE AVERAGE OF IN AND OUT TIMES 100

 PERCENT DISCREPANCY =          -0.00     PERCENT DISCREPANCY =           0.00






1
              HEAD IN LAYER   1 AT END OF TIME STEP    15 IN STRESS PERIOD    8
  -----------------------------------------------------------------------------

           1       2       3       4       5       6       7       8       9      10
 ...................................................................................
   1  1035.49 1033.77 6999.00 6999.00 6999.00 6999.00 6999.00 6999.00 6999.00 6999.00
   2  1034.81 1033.55 1032.42 6999.00 6999.00 1034.09 1034.32 1034.41 6999.00 6999.00
   3  6999.00 1032.54 1032.15 1031.80 1032.22 1032.93 1033.68 1033.90 6999.00 6999.00
   4  1031.80 1031.74 1031.35 1030.87 1030.89 1030.92 1031.71 1033.10 1033.09 6999.00
   5  1031.32 1030.88 1030.41 1030.00 1030.08 1030.34 1030.53 1031.12 1031.92 1032.47
   6  1030.70 1030.05 1029.51 1029.14 1029.25 1029.67 1029.99 1030.62 1031.67 1033.06
   7  1030.15 1028.99 1028.45 1028.13 1028.31 1028.81 1029.28 1029.92 1031.31 6999.00
   8  6999.00 1027.46 1027.11 1026.91 1027.13 1027.71 1028.18 1029.41 1030.61 6999.00
   9  6999.00 1025.17 1025.17 1025.26 1025.63 1026.35 1026.92 1028.25 1029.79 6999.00
  10  6999.00 1022.06 1022.50 1023.20 1023.97 1025.04 1026.06 1027.60 1029.56 1030.22
  11  6999.00 1017.19 1018.22 1020.54 1022.18 1023.98 1025.64 1027.83 1030.35 6999.00
  12  1003.22 1009.06 1012.84 1016.84 1020.15 1023.24 1025.81 1029.45 1032.76 6999.00
  13   995.44 1000.39 1006.93 1012.95 1018.29 1022.96 1027.29 1032.22 1035.24 6999.00
  14  6999.00 1007.27 1010.11 1014.73 1019.52 1023.98 1028.79 1034.00 1037.80 6999.00
  15  6999.00 6999.00 1014.18 1016.90 1020.36 1023.34 6999.00 6999.00 6999.00 6999.00

 HEAD WILL BE SAVED ON UNIT   62 AT END OF TIME STEP   15, STRESS PERIOD    8
1
  VOLUMETRIC BUDGET FOR ENTIRE MODEL AT END OF TIME STEP   15, STRESS PERIOD   8
  ------------------------------------------------------------------------------

     CUMULATIVE VOLUMES      L**3       RATES FOR THIS TIME STEP      L**3/T
     ------------------                 ------------------------

           IN:                                      IN:
           ---                                      ---
             STORAGE     =    17051276.0000               STORAGE     =           6.9337
       CONSTANT HEAD     =           0.0000         CONSTANT HEAD     =           0.0000
               WELLS     =           0.0000                 WELLS     =           0.0000
     HEAD DEP BOUNDS     =     4759632.0000       HEAD DEP BOUNDS     =           0.2735
      STREAM LEAKAGE     =   199872544.0000        STREAM LEAKAGE     =          12.4851
        UZF RECHARGE     =   444073216.0000          UZF RECHARGE     =          23.6746
               GW ET     =           0.0000                 GW ET     =           0.0000
     SURFACE LEAKAGE     =           0.0000       SURFACE LEAKAGE     =           0.0000
    SUPPLEMENTARY WELLS  =           0.0000      SUPPLEMENTARY WELLS  =           0.0000

                TOTAL IN =   665756672.0000                  TOTAL IN =          43.3669

          OUT:                                     OUT:
          ----                                     ----
             STORAGE     =   445332192.0000               STORAGE     =          21.9218
       CONSTANT HEAD     =           0.0000         CONSTANT HEAD     =           0.0000
               WELLS     =           0.0000                 WELLS     =           0.0000
     HEAD DEP BOUNDS     =     5014219.5000       HEAD DEP BOUNDS     =           0.2825
      STREAM LEAKAGE     =   186041664.0000        STREAM LEAKAGE     =           7.1588
        UZF RECHARGE     =           0.0000          UZF RECHARGE     =           0.0000
               GW ET     =    29259050.0000                 GW ET     =          14.0000
     SURFACE LEAKAGE     =           0.0000       SURFACE LEAKAGE     =           0.0000
    SUPPLEMENTARY WELLS  =       31773.3008      SUPPLEMENTARY WELLS  =           0.0000

               TOTAL OUT =   665678912.0000                 TOTAL OUT =          43.3632

                IN - OUT =       77760.0000                  IN - OUT =       3.6964E-03

     PERCENT DISCREPANCY =           0.01         PERCENT DISCREPANCY =           0.01






         TIME SUMMARY AT END OF TIME STEP   15 IN STRESS PERIOD    8
                    SECONDS     MINUTES      HOURS       DAYS        YEARS
                    -----------------------------------------------------------
   TIME STEP LENGTH  87600.      1460.0      24.333      1.0139     2.77588E-03
 STRESS PERIOD TIME 1.31400E+06  21900.      365.00      15.208     4.16381E-02
         TOTAL TIME 1.71684E+07 2.86140E+05  4769.0      198.71     0.54403    
1
 
 SOLVING FOR HEAD 
                                                   Max.-Head-Change                         Max.-Flux-Residual
  Residual-Control   Outer-Iter.   Inner-Iter.     Column Row Layer    Maximum-Head-Change  Column Row Layer    Maximum-Flux-Residual          L2-NORM 
          0                 1           2             7   13     1      -0.2609517013E-01       7   13    1        -0.1396060126E+01      0.3024701616E+01
          0                 2           2             2   13     1       0.3204882695E-02       2   13    1         0.1827791737E+00      0.5775130316E+00
          0                 3           2             7    6     1      -0.7249859259E-01       7    6    1        -0.3994711979E+01      0.3997687800E+01
          0                 4           2             7    6     1       0.7470653748E-01       7    6    1         0.4154342565E+01      0.4159902696E+01
          0                 5           2             7    6     1      -0.1703559428E-02       7    6    1        -0.9612170445E-01      0.1039022704E+00
          0                 6           2             7    6     1      -0.3112748007E-03       7    6    1        -0.1754685433E-01      0.2205143131E-01
          0                 7           1             7    6     1      -0.5694758784E-04       7    6    1        -0.3207310608E-02      0.6620550980E-02
          0                 8           1             1    2     1       0.1933206522E-04       7    6    1        -0.5869742886E-03      0.2650425013E-02
          0                 9           1             1    2     1       0.8677940048E-05       1    2    1         0.2255997646E-03      0.1161899797E-02

    ------------------------------------------------
       NWT REQUIRED            9 OUTER ITERATIONS 
       AND A TOTAL OF         15 INNER ITERATIONS.
    ------------------------------------------------

 NO OUTPUT CONTROL FOR STRESS PERIOD    8   TIME STEP   16
 
 SOLVING FOR HEAD 
                                                   Max.-Head-Change                         Max.-Flux-Residual
  Residual-Control   Outer-Iter.   Inner-Iter.     Column Row Layer    Maximum-Head-Change  Column Row Layer    Maximum-Flux-Residual          L2-NORM 
          0                 1           2             7   13     1      -0.2535353144E-01       7   13    1        -0.1356108470E+01      0.2944322406E+01
          0                 2           2             2   13     1       0.3119835568E-02       2   13    1         0.1779243602E+00      0.5701915310E+00
          0                 3           2             7    6     1      -0.7249848853E-01       7    6    1        -0.3994708792E+01      0.3997667495E+01
          0                 4           2             7    6     1       0.7470598328E-01       7    6    1         0.4154313911E+01      0.4155808932E+01
          0                 5           2             7    6     1      -0.1978784070E-02       7    6    1        -0.1115649175E+00      0.1174669059E+00
          0                 6           1             1    2     1       0.9592340695E-04       7    6    1        -0.4921144646E-02      0.1420944686E-01
          0                 7           1             1    2     1       0.4305934907E-04       1    2    1         0.1119403525E-02      0.5856016107E-02
          0                 8           1             1    2     1       0.1932888957E-04       1    2    1         0.5024909981E-03      0.2586568833E-02
          0                 9           1             1    2     1       0.8676508412E-05       1    2    1         0.2255626751E-03      0.1155687652E-02

    ------------------------------------------------
       NWT REQUIRED            9 OUTER ITERATIONS 
       AND A TOTAL OF         14 INNER ITERATIONS.
    ------------------------------------------------

 NO OUTPUT CONTROL FOR STRESS PERIOD    8   TIME STEP   17
 
 SOLVING FOR HEAD 
                                                   Max.-Head-Change                         Max.-Flux-Residual
  Residual-Control   Outer-Iter.   Inner-Iter.     Column Row Layer    Maximum-Head-Change  Column Row Layer    Maximum-Flux-Residual          L2-NORM 
          0                 1           2             7   13     1      -0.2463649999E-01       7   13    1        -0.1317483112E+01      0.2873164490E+01
          0                 2           2             6   13     1       0.2626219481E-02       2   13    1         0.1424656367E+00      0.5313617780E+00
          0                 3           2             7    6     1      -0.5258987202E-01       7    6    1        -0.2897808545E+01      0.2901816952E+01
          0                 4           2             7    6     1       0.5320496831E-01       7    6    1         0.2958670957E+01      0.2962753986E+01
          0                 5           2             7    6     1      -0.4031284491E-03       7    6    1        -0.2300107278E-01      0.4141729444E-01
          0                 6           1             1    2     1       0.9590762794E-04       7    6    1        -0.4131843392E-02      0.1377236469E-01
          0                 7           1             1    2     1       0.4305223666E-04       1    2    1         0.1119219243E-02      0.5816497058E-02
          0                 8           1             1    2     1       0.1932568439E-04       1    2    1         0.5024079469E-03      0.2579577709E-02
          0                 9           1             1    2     1       0.8675064021E-05       1    2    1         0.2255252434E-03      0.1153313801E-02

    ------------------------------------------------
       NWT REQUIRED            9 OUTER ITERATIONS 
       AND A TOTAL OF         14 INNER ITERATIONS.
    ------------------------------------------------

 NO OUTPUT CONTROL FOR STRESS PERIOD    8   TIME STEP   18
 
 SOLVING FOR HEAD 
                                                   Max.-Head-Change                         Max.-Flux-Residual
  Residual-Control   Outer-Iter.   Inner-Iter.     Column Row Layer    Maximum-Head-Change  Column Row Layer    Maximum-Flux-Residual          L2-NORM 
          0                 1           2             7   13     1      -0.2394694429E-01       7   13    1        -0.1280356631E+01      0.2803692215E+01
          0                 2           2             2   13     1       0.2976731122E-02       2   13    1         0.1697579505E+00      0.5574926307E+00
          0                 3           2             7    6     1      -0.7249825924E-01       7    6    1        -0.3994701225E+01      0.3997629385E+01
          0                 4           2             7    6     1       0.7470461175E-01       7    6    1         0.4154241980E+01      0.4159894315E+01
          0                 5           2             7    6     1      -0.1702041649E-02       7    6    1        -0.9603675092E-01      0.1038053602E+00
          0                 6           2             7    6     1      -0.3109943423E-03       7    6    1        -0.1753116766E-01      0.2200161777E-01
          0                 7           1             7    6     1      -0.5689571515E-04       7    6    1        -0.3204411258E-02      0.6593922451E-02
          0                 8           1             1    2     1       0.1932244946E-04       7    6    1        -0.5864378857E-03      0.2637677494E-02
          0                 9           1             1    2     1       0.8673606374E-05       1    2    1         0.2254874746E-03      0.1156122519E-02

    ------------------------------------------------
       NWT REQUIRED            9 OUTER ITERATIONS 
       AND A TOTAL OF         15 INNER ITERATIONS.
    ------------------------------------------------

 NO OUTPUT CONTROL FOR STRESS PERIOD    8   TIME STEP   19
 
 SOLVING FOR HEAD 
                                                   Max.-Head-Change                         Max.-Flux-Residual
  Residual-Control   Outer-Iter.   Inner-Iter.     Column Row Layer    Maximum-Head-Change  Column Row Layer    Maximum-Flux-Residual          L2-NORM 
          0                 1           2             7   13     1      -0.2328175300E-01       7   13    1        -0.1244540391E+01      0.2738926834E+01
          0                 2           2             2   13     1       0.2909526204E-02       2   13    1         0.1659232439E+00      0.5515307619E+00
          0                 3           2             7    6     1      -0.7249814081E-01       7    6    1        -0.3994697240E+01      0.3997610874E+01
          0                 4           2             7    6     1       0.7470388526E-01       7    6    1         0.4154203752E+01      0.4155701587E+01
     PET DIFF ERROR     6    7   -0.2033247612E-08    0.7999999774E-07
     PET DIFF ERROR     6    8   -0.2033247612E-08    0.7999999774E-07
          0                 5           2             7    6     1      -0.4212006940E-01       7    6    1        -0.2363938102E+01      0.2364222370E+01
          0                 6           2             7    6     1       0.3880111938E-01       7    6    1         0.2197337357E+01      0.2197405380E+01
          0                 7           2             7    6     1       0.9984208968E-03       7    6    1         0.5625535156E-01      0.5769624274E-01
          0                 8           2             7    6     1       0.1924952551E-03       7    6    1         0.1083745497E-01      0.1142738713E-01
          0                 9           1             7    6     1       0.3714983016E-04       7    6    1         0.2089869195E-02      0.2450869325E-02
          0                10           1             7    6     1       0.7176771704E-05       7    6    1         0.4034055103E-03      0.6657553109E-03

    ------------------------------------------------
       NWT REQUIRED           10 OUTER ITERATIONS 
       AND A TOTAL OF         18 INNER ITERATIONS.
    ------------------------------------------------

 NO OUTPUT CONTROL FOR STRESS PERIOD    8   TIME STEP   20
 
 SOLVING FOR HEAD 
                                                   Max.-Head-Change                         Max.-Flux-Residual
  Residual-Control   Outer-Iter.   Inner-Iter.     Column Row Layer    Maximum-Head-Change  Column Row Layer    Maximum-Flux-Residual          L2-NORM 
          0                 1           2             7   13     1      -0.2263837034E-01       7   13    1        -0.1209888469E+01      0.2681502615E+01
          0                 2           2             6   13     1       0.2492445313E-02       2   13    1         0.1366511875E+00      0.5199976824E+00
          0                 3           2             7    6     1      -0.5604911744E-01       7    6    1        -0.3088408337E+01      0.3092123853E+01
          0                 4           2             7    6     1       0.5693897585E-01       7    6    1         0.3166319950E+01      0.3171041454E+01
          0                 5           2             7    6     1      -0.6271838917E-03       7    6    1        -0.3559960972E-01      0.5015186495E-01
          0                 6           2             7    6     1      -0.1136245693E-03       7    6    1        -0.6443130674E-02      0.1460677426E-01
          0                 7           1             1    2     1       0.4303043949E-04       7    6    1        -0.1167718854E-02      0.5859792989E-02
          0                 8           1             1    2     1       0.1931586128E-04       1    2    1         0.5021533963E-03      0.2572602798E-02
          0                 9           1             1    2     1       0.8670637556E-05       1    2    1         0.2254105322E-03      0.1148231987E-02

    ------------------------------------------------
       NWT REQUIRED            9 OUTER ITERATIONS 
       AND A TOTAL OF         15 INNER ITERATIONS.
    ------------------------------------------------

 NO OUTPUT CONTROL FOR STRESS PERIOD    8   TIME STEP   21
 
 SOLVING FOR HEAD 
                                                   Max.-Head-Change                         Max.-Flux-Residual
  Residual-Control   Outer-Iter.   Inner-Iter.     Column Row Layer    Maximum-Head-Change  Column Row Layer    Maximum-Flux-Residual          L2-NORM 
          0                 1           2             7   13     1      -0.2201948222E-01       7   13    1        -0.1176545580E+01      0.2624968204E+01
          0                 2           2             2   13     1       0.2797246782E-02       2   13    1         0.1595188466E+00      0.5411849664E+00
          0                 3           2             7    6     1      -0.7249788993E-01       7    6    1        -0.3994688476E+01      0.3997576110E+01
          0                 4           2             7    6     1       0.7470225409E-01       7    6    1         0.4154117397E+01      0.4159005269E+01
          0                 5           2             7    6     1      -0.1700165902E-02       7    6    1        -0.9593170682E-01      0.1034898039E+00
          0                 6           2             7    6     1      -0.3106479801E-03       7    6    1        -0.1751178521E-01      0.2194823331E-01
          0                 7           1             7    6     1      -0.5683169503E-04       7    6    1        -0.3200831270E-02      0.6569450269E-02
          0                 8           1             1    2     1       0.1931253956E-04       7    6    1        -0.5857760289E-03      0.2626162687E-02
          0                 9           1             1    2     1       0.8669141142E-05       1    2    1         0.2253717474E-03      0.1150911963E-02

    ------------------------------------------------
       NWT REQUIRED            9 OUTER ITERATIONS 
       AND A TOTAL OF         15 INNER ITERATIONS.
    ------------------------------------------------

 NO OUTPUT CONTROL FOR STRESS PERIOD    8   TIME STEP   22
 
 SOLVING FOR HEAD 
                                                   Max.-Head-Change                         Max.-Flux-Residual
  Residual-Control   Outer-Iter.   Inner-Iter.     Column Row Layer    Maximum-Head-Change  Column Row Layer    Maximum-Flux-Residual          L2-NORM 
          0                 1           2             7   13     1      -0.2142184571E-01       7   13    1        -0.1144341203E+01      0.2572617380E+01
          0                 2           2             2   13     1       0.2745131663E-02       2   13    1         0.1565465493E+00      0.5364351012E+00
          0                 3           2             7    6     1      -0.7249775490E-01       7    6    1        -0.3994683556E+01      0.3997558761E+01
          0                 4           2             7    6     1       0.7470132034E-01       7    6    1         0.4154067652E+01      0.4155947877E+01
          0                 5           2             7    6     1      -0.1699418140E-02       7    6    1        -0.9588981638E-01      0.1027166661E+00
          0                 6           2             7    6     1      -0.3105099686E-03       7    6    1        -0.1750405956E-01      0.2191631314E-01
          0                 7           1             7    6     1      -0.5680619746E-04       7    6    1        -0.3199404998E-02      0.6562107477E-02
          0                 8           1             1    2     1       0.1930918932E-04       7    6    1        -0.5855124164E-03      0.2622898006E-02
          0                 9           1             1    2     1       0.8667631221E-05       1    2    1         0.2253326250E-03      0.1149445825E-02

    ------------------------------------------------
       NWT REQUIRED            9 OUTER ITERATIONS 
       AND A TOTAL OF         15 INNER ITERATIONS.
    ------------------------------------------------

 NO OUTPUT CONTROL FOR STRESS PERIOD    8   TIME STEP   23
 
 SOLVING FOR HEAD 
                                                   Max.-Head-Change                         Max.-Flux-Residual
  Residual-Control   Outer-Iter.   Inner-Iter.     Column Row Layer    Maximum-Head-Change  Column Row Layer    Maximum-Flux-Residual          L2-NORM 
          0                 1           2             7   13     1      -0.2084360110E-01       7   13    1        -0.1113176292E+01      0.2525525048E+01
          0                 2           2             2   13     1       0.2451083456E-02       2   13    1         0.1397490548E+00      0.5179215370E+00
          0                 3           2             7    6     1      -0.6351537551E-01       7    6    1        -0.3499783354E+01      0.3503035249E+01
          0                 4           2             7    6     1       0.6499997944E-01       7    6    1         0.3614589234E+01      0.3619801703E+01
          0                 5           2             7    6     1      -0.1112415908E-02       7    6    1        -0.6288376875E-01      0.7297291261E-01
          0                 6           2             7    6     1      -0.2027224808E-03       7    6    1        -0.1144865474E-01      0.1741219343E-01
          0                 7           1             1    2     1       0.4300813784E-04       7    6    1        -0.2087128246E-02      0.6087753662E-02
          0                 8           1             1    2     1       0.1930581132E-04       1    2    1         0.5018929507E-03      0.2580927837E-02
          0                 9           1             1    2     1       0.8666109045E-05       1    2    1         0.2252931762E-03      0.1144702550E-02

    ------------------------------------------------
       NWT REQUIRED            9 OUTER ITERATIONS 
       AND A TOTAL OF         15 INNER ITERATIONS.
    ------------------------------------------------

 NO OUTPUT CONTROL FOR STRESS PERIOD    8   TIME STEP   24
 
 SOLVING FOR HEAD 
                                                   Max.-Head-Change                         Max.-Flux-Residual
  Residual-Control   Outer-Iter.   Inner-Iter.     Column Row Layer    Maximum-Head-Change  Column Row Layer    Maximum-Flux-Residual          L2-NORM 
          0                 1           2             7   13     1      -0.2028648300E-01       7   13    1        -0.1083169711E+01      0.2479010382E+01
          0                 2           2             2   13     1       0.2656685047E-02       2   13    1         0.1515039224E+00      0.5282893300E+00
          0                 3           2             7    6     1      -0.7249748780E-01       7    6    1        -0.3994673892E+01      0.3997526793E+01
          0                 4           2             7    6     1       0.7469949174E-01       7    6    1         0.4153970335E+01      0.4157928973E+01
          0                 5           2             7    6     1      -0.1697955042E-02       7    6    1        -0.9580785451E-01      0.1031192016E+00
          0                 6           2             7    6     1      -0.3102399250E-03       7    6    1        -0.1748894307E-01      0.2189391513E-01
          0                 7           1             7    6     1      -0.5675630623E-04       7    6    1        -0.3196614198E-02      0.6546430074E-02
          0                 8           1             1    2     1       0.1930240531E-04       7    6    1        -0.5849966929E-03      0.2615506802E-02
          0                 9           1             1    2     1       0.8664574364E-05       1    2    1         0.2252533980E-03      0.1146102544E-02

    ------------------------------------------------
       NWT REQUIRED            9 OUTER ITERATIONS 
       AND A TOTAL OF         15 INNER ITERATIONS.
    ------------------------------------------------

 NO OUTPUT CONTROL FOR STRESS PERIOD    8   TIME STEP   25
 
 SOLVING FOR HEAD 
                                                   Max.-Head-Change                         Max.-Flux-Residual
  Residual-Control   Outer-Iter.   Inner-Iter.     Column Row Layer    Maximum-Head-Change  Column Row Layer    Maximum-Flux-Residual          L2-NORM 
          0                 1           2             7   13     1      -0.1974700345E-01       7   13    1        -0.1054157452E+01      0.2436020360E+01
          0                 2           2             2   13     1       0.2616908880E-02       2   13    1         0.1492365969E+00      0.5244028607E+00
          0                 3           2             7    6     1      -0.7249734474E-01       7    6    1        -0.3994668523E+01      0.3997510558E+01
          0                 4           2             7    6     1       0.7469845773E-01       7    6    1         0.4153915023E+01      0.4157618563E+01
          0                 5           2             7    6     1      -0.1697124340E-02       7    6    1        -0.9576130857E-01      0.1030041390E+00
          0                 6           2             7    6     1      -0.3100866486E-03       7    6    1        -0.1748036116E-01      0.2187569189E-01
          0                 7           1             7    6     1      -0.5672799613E-04       7    6    1        -0.3195030287E-02      0.6538912989E-02
          0                 8           1             1    2     1       0.1929897153E-04       7    6    1        -0.5847040841E-03      0.2612064412E-02
          0                 9           1             1    2     1       0.8663027177E-05       1    2    1         0.2252132978E-03      0.1144552603E-02

    ------------------------------------------------
       NWT REQUIRED            9 OUTER ITERATIONS 
       AND A TOTAL OF         15 INNER ITERATIONS.
    ------------------------------------------------

 NO OUTPUT CONTROL FOR STRESS PERIOD    8   TIME STEP   26
 
 SOLVING FOR HEAD 
                                                   Max.-Head-Change                         Max.-Flux-Residual
  Residual-Control   Outer-Iter.   Inner-Iter.     Column Row Layer    Maximum-Head-Change  Column Row Layer    Maximum-Flux-Residual          L2-NORM 
          0                 1           2             7   13     1      -0.1922574049E-01       7   13    1        -0.1026127422E+01      0.2396423162E+01
          0                 2           2             2   13     1       0.2580644051E-02       2   13    1         0.1471698320E+00      0.5207936758E+00
          0                 3           2             7    6     1      -0.7249720511E-01       7    6    1        -0.3994663355E+01      0.3997495006E+01
          0                 4           2             7    6     1       0.7469747050E-01       7    6    1         0.4153862316E+01      0.4158432948E+01
          0                 5           2             7    6     1      -0.1696332406E-02       7    6    1        -0.9571693866E-01      0.1031612842E+00
          0                 6           2             7    6     1      -0.3099405096E-03       7    6    1        -0.1747217951E-01      0.2186382536E-01
          0                 7           1             7    6     1      -0.5670100140E-04       7    6    1        -0.3193520073E-02      0.6531517576E-02
          0                 8           1             1    2     1       0.1929550975E-04       7    6    1        -0.5844250456E-03      0.2608615067E-02
          0                 9           1             1    2     1       0.8661467735E-05       1    2    1         0.2251728785E-03      0.1142995180E-02

    ------------------------------------------------
       NWT REQUIRED            9 OUTER ITERATIONS 
       AND A TOTAL OF         15 INNER ITERATIONS.
    ------------------------------------------------

 NO OUTPUT CONTROL FOR STRESS PERIOD    8   TIME STEP   27
 
 SOLVING FOR HEAD 
                                                   Max.-Head-Change                         Max.-Flux-Residual
  Residual-Control   Outer-Iter.   Inner-Iter.     Column Row Layer    Maximum-Head-Change  Column Row Layer    Maximum-Flux-Residual          L2-NORM 
          0                 1           2             6   13     1      -0.1878255029E-01       6   13    1        -0.9991127399E+00      0.2358035798E+01
          0                 2           2             2   13     1       0.2545776804E-02       2   13    1         0.1451827789E+00      0.5173031237E+00
          0                 3           2             7    6     1      -0.7249706377E-01       7    6    1        -0.3994658085E+01      0.3997479701E+01
          0                 4           2             7    6     1       0.7469645687E-01       7    6    1         0.4153808145E+01      0.4156254143E+01
          0                 5           2             7    6     1      -0.1695518739E-02       7    6    1        -0.9567134894E-01      0.1025976807E+00
          0                 6           2             7    6     1      -0.3097903674E-03       7    6    1        -0.1746377345E-01      0.2183693255E-01
          0                 7           1             7    6     1      -0.5667326856E-04       7    6    1        -0.3191968533E-02      0.6524717585E-02
          0                 8           1             1    2     1       0.1929202095E-04       7    6    1        -0.5841383727E-03      0.2605603601E-02
          0                 9           1             1    2     1       0.8659896037E-05       1    2    1         0.2251321383E-03      0.1141644261E-02

    ------------------------------------------------
       NWT REQUIRED            9 OUTER ITERATIONS 
       AND A TOTAL OF         15 INNER ITERATIONS.
    ------------------------------------------------

 NO OUTPUT CONTROL FOR STRESS PERIOD    8   TIME STEP   28
 
 SOLVING FOR HEAD 
     PET DIFF ERROR     6    7   -0.9008811578E-08    0.7999999774E-07
     PET DIFF ERROR     6    8   -0.9008811578E-08    0.7999999774E-07
                                                   Max.-Head-Change                         Max.-Flux-Residual
  Residual-Control   Outer-Iter.   Inner-Iter.     Column Row Layer    Maximum-Head-Change  Column Row Layer    Maximum-Flux-Residual          L2-NORM 
          0                 1           2             6   13     1      -0.1837378148E-01       6   13    1        -0.9773433034E+00      0.2322678118E+01
          0                 2           2             1    2     1       0.2355579695E-02       2   13    1         0.1316824180E+00      0.5025741690E+00
          0                 3           2             7    6     1      -0.6512664189E-01       7    6    1        -0.3588570907E+01      0.3591688171E+01
          0                 4           2             7    6     1       0.6673576371E-01       7    6    1         0.3711124095E+01      0.3716507966E+01
          0                 5           2             7    6     1      -0.1213552445E-02       7    6    1        -0.6857124365E-01      0.7807171275E-01
          0                 6           2             7    6     1      -0.2212900999E-03       7    6    1        -0.1249190153E-01      0.1806689181E-01
          0                 7           1             1    2     1       0.4296972678E-04       7    6    1        -0.2278720131E-02      0.6121260334E-02
          0                 8           1             1    2     1       0.1928850539E-04       1    2    1         0.5014444047E-03      0.2569557978E-02
          0                 9           1             1    2     1       0.8658311834E-05       1    2    1         0.2250910824E-03      0.1137503378E-02

    ------------------------------------------------
       NWT REQUIRED            9 OUTER ITERATIONS 
       AND A TOTAL OF         15 INNER ITERATIONS.
    ------------------------------------------------

 NO OUTPUT CONTROL FOR STRESS PERIOD    8   TIME STEP   29
 
 SOLVING FOR HEAD 
                                                   Max.-Head-Change                         Max.-Flux-Residual
  Residual-Control   Outer-Iter.   Inner-Iter.     Column Row Layer    Maximum-Head-Change  Column Row Layer    Maximum-Flux-Residual          L2-NORM 
          0                 1           2             6   13     1      -0.2024030399E-01       6   13    1        -0.1077480895E+01      0.2742397469E+01
          0                 2           2             2   13     1       0.3448325813E-02       4   13    1         0.1981988326E+00      0.5619153865E+00
          0                 3           2             7    6     1      -0.7249777542E-01       7    6    1        -0.3994688212E+01      0.3997506674E+01
          0                 4           2             7    6     1       0.7469749133E-01       7    6    1         0.4153872719E+01      0.4156180350E+01
          0                 5           2             7    6     1      -0.1696637020E-02       7    6    1        -0.9573377635E-01      0.1025956024E+00
          0                 6           2             7    6     1      -0.3099978754E-03       7    6    1        -0.1747534666E-01      0.2181981635E-01
          0                 7           1             7    6     1      -0.5671182008E-04       7    6    1        -0.3194116824E-02      0.6508780838E-02
          0                 8           1             1    2     1       0.1925816717E-04       7    6    1        -0.5845376209E-03      0.2597217996E-02
          0                 9           1             1    2     1       0.8644682783E-05       1    2    1         0.2247369661E-03      0.1137795146E-02

    ------------------------------------------------
       NWT REQUIRED            9 OUTER ITERATIONS 
       AND A TOTAL OF         15 INNER ITERATIONS.
    ------------------------------------------------

 NO OUTPUT CONTROL FOR STRESS PERIOD    8   TIME STEP   30



 STREAM LISTING     PERIOD      8   STEP       30

 LAYER ROW COL. STREAM  RCH.  FLOW INTO     FLOW TO   FLOW OUT OF   OVRLND.     DIRECT     STREAM       STREAM     STREAM     STREAM   STREAMBED  STREAMBED
                SEG.NO.  NO.  STRM. RCH.    AQUIFER    STRM. RCH.    RUNOFF     PRECIP       ET          HEAD       DEPTH      WIDTH   CONDCTNC.   GRADIENT

   1    1    1     1     1    3.6662E+01  2.9230E-01   3.6370E+01  0.000E+00  0.000E+00  0.000E+00  1.09435E+03  1.306E+00  1.509E+01  6.789E-02  1.435E+00
   1    2    2     1     2    3.6370E+01  4.5261E-01   3.5917E+01  0.000E+00  0.000E+00  0.000E+00  1.08936E+03  1.303E+00  1.503E+01  1.052E-01  1.434E+00
   1    3    3     1     3    3.5917E+01  3.8593E-01   3.5531E+01  0.000E+00  0.000E+00  0.000E+00  1.08372E+03  1.299E+00  1.496E+01  8.976E-02  1.433E+00
   1    3    4     1     4    3.5531E+01  3.5533E-01   3.5176E+01  0.000E+00  0.000E+00  0.000E+00  1.07870E+03  1.296E+00  1.490E+01  8.270E-02  1.432E+00
   1    4    5     2     1    3.3176E+01  3.4527E-01   3.2831E+01  0.000E+00  0.000E+00  0.000E+00  1.07336E+03  1.427E+00  1.200E+01  7.800E-02  1.476E+00
   1    5    6     2     2    3.2831E+01  2.6512E-01   3.2566E+01  0.000E+00  0.000E+00  0.000E+00  1.06793E+03  1.419E+00  1.200E+01  6.000E-02  1.473E+00
   1    6    6     2     3    3.2566E+01  2.6470E-01   3.2301E+01  0.000E+00  0.000E+00  0.000E+00  1.06320E+03  1.412E+00  1.200E+01  6.000E-02  1.471E+00
   1    7    6     2     4    3.2301E+01  2.6429E-01   3.2037E+01  0.000E+00  0.000E+00  0.000E+00  1.05848E+03  1.405E+00  1.200E+01  6.000E-02  1.468E+00
   1    8    6     2     5    3.2037E+01  2.6387E-01   3.1773E+01  0.000E+00  0.000E+00  0.000E+00  1.05376E+03  1.398E+00  1.200E+01  6.000E-02  1.466E+00
   1    3    5     3     1    2.0000E+00  2.8252E-01   1.7175E+00  0.000E+00  0.000E+00  0.000E+00  1.07555E+03  1.909E+00  9.636E+00  7.227E-02  1.955E+00
   1    3    6     3     2    1.7175E+00  2.4905E-01   1.4684E+00  0.000E+00  0.000E+00  0.000E+00  1.07264E+03  1.727E+00  8.909E+00  6.682E-02  1.864E+00
   1    3    7     3     3    1.4684E+00  1.9718E-01   1.2712E+00  0.000E+00  0.000E+00  0.000E+00  1.06987E+03  1.555E+00  8.218E+00  5.547E-02  1.777E+00
   1    4    8     3     4    1.2712E+00  2.2567E-01   1.0456E+00  0.000E+00  0.000E+00  0.000E+00  1.06682E+03  1.364E+00  7.455E+00  6.709E-02  1.682E+00
   1    5    8     3     5    1.0456E+00  1.5790E-01   8.8768E-01  0.000E+00  0.000E+00  0.000E+00  1.06362E+03  1.164E+00  6.655E+00  4.991E-02  1.582E+00
   1    6    8     3     6    8.8768E-01  5.5980E-02   8.3170E-01  0.000E+00  0.000E+00  0.000E+00  1.06158E+03  1.036E+00  6.145E+00  1.844E-02  1.518E+00
   1    5   10     4     1    1.0000E+01  9.0919E-02   9.9091E+00  0.000E+00  0.000E+00  0.000E+00  1.07836E+03  6.368E-01  1.000E+01  2.500E-02  1.212E+00
   1    5    9     4     2    9.9091E+00  1.8158E-01   9.7275E+00  0.000E+00  0.000E+00  0.000E+00  1.07154E+03  6.315E-01  1.000E+01  5.000E-02  1.211E+00
   1    6    8     4     3    9.7275E+00  1.2689E-01   9.6006E+00  0.000E+00  0.000E+00  0.000E+00  1.06381E+03  6.256E-01  1.000E+01  3.500E-02  1.209E+00
   1    6    8     5     1    1.0432E+01  2.2686E-01   1.0205E+01  0.000E+00  0.000E+00  0.000E+00  1.05868E+03  6.790E-01  1.542E+01  6.166E-02  1.226E+00
   1    7    7     5     2    1.0205E+01  2.7894E-01   9.9265E+00  0.000E+00  0.000E+00  0.000E+00  1.05417E+03  6.732E-01  1.519E+01  7.594E-02  1.224E+00
   1    8    7     5     3    9.9265E+00  1.9221E-01   9.7343E+00  0.000E+00  0.000E+00  0.000E+00  1.04992E+03  6.676E-01  1.497E+01  5.241E-02  1.223E+00
   1    8    6     5     4    9.7343E+00  1.3577E-01   9.5985E+00  0.000E+00  0.000E+00  0.000E+00  1.04691E+03  6.637E-01  1.482E+01  3.706E-02  1.221E+00
   1    9    6     6     1    3.8391E+01  2.7456E-01   3.8117E+01  0.000E+00  0.000E+00  0.000E+00  1.04430E+03  1.576E+00  1.200E+01  6.000E-02  1.525E+00
   1   10    7     6     2    3.8117E+01  2.7416E-01   3.7842E+01  0.000E+00  0.000E+00  0.000E+00  1.03975E+03  1.569E+00  1.200E+01  6.000E-02  1.523E+00
   1   11    7     6     3    3.7842E+01  2.7375E-01   3.7569E+01  0.000E+00  0.000E+00  0.000E+00  1.03520E+03  1.562E+00  1.200E+01  6.000E-02  1.521E+00
   1   12    7     6     4    3.7569E+01  2.7334E-01   3.7295E+01  0.000E+00  0.000E+00  0.000E+00  1.03065E+03  1.556E+00  1.200E+01  6.000E-02  1.519E+00
   1   13    7     6     5    3.7295E+01  1.1191E-02   3.7284E+01  0.000E+00  0.000E+00  0.000E+00  1.02746E+03  1.552E+00  1.200E+01  2.400E-02  1.554E-01
   1   14    9     7     1    1.5000E+02  1.1528E+00   1.4885E+02  0.000E+00  0.000E+00  0.000E+00  1.03987E+03  2.288E+00  5.530E+01  5.593E-01  6.870E-01
   1   13    8     7     2    1.4885E+02  1.6000E+00   1.4725E+02  0.000E+00  0.000E+00  0.000E+00  1.03478E+03  2.281E+00  5.526E+01  6.149E-01  8.674E-01
   1   13    7     7     3    1.4725E+02  1.5064E+00   1.4574E+02  0.000E+00  0.000E+00  0.000E+00  1.02969E+03  2.273E+00  5.523E+01  5.586E-01  8.990E-01
   1   13    6     8     1    1.8302E+02  9.9998E-01   1.8202E+02  0.000E+00  0.000E+00  0.000E+00  1.02491E+03  3.032E+00  4.396E+01  4.480E-01  7.440E-01
   1   13    5     8     2    1.8202E+02  2.5599E-01   1.8177E+02  0.000E+00  0.000E+00  0.000E+00  1.01865E+03  3.028E+00  4.391E+01  4.474E-01  1.907E-01
   1   13    4     8     3    1.8177E+02 -2.0032E+00   1.8377E+02  0.000E+00  0.000E+00  0.000E+00  1.01241E+03  3.033E+00  4.399E+01  4.482E+00 -1.490E-01
   1   13    3     8     4    1.8377E+02 -3.0077E+00   1.8678E+02  0.000E+00  0.000E+00  0.000E+00  1.00617E+03  3.049E+00  4.421E+01  4.505E+00 -2.225E-01
   1   13    2     8     5    1.8678E+02 -1.5387E+00   1.8832E+02  0.000E+00  0.000E+00  0.000E+00  9.99938E+02  3.063E+00  4.441E+01  4.526E+00 -1.133E-01
   1   13    1     8     6    1.8832E+02 -9.0082E-01   1.8922E+02  0.000E+00  0.000E+00  0.000E+00  9.94945E+02  3.070E+00  4.452E+01  2.722E+00 -1.103E-01
   1    6    8     9     1    2.9800E+00  0.0000E+00   2.9800E+00  0.000E+00  0.000E+00  0.000E+00  1.07876E+03  2.606E-01  4.000E+00  0.000E+00  1.087E+00





UNSATURATED ZONE PACKAGE VOLUMETRIC BUDGET FOR  TIME STEP    30 STRESS PERIOD    8
  ------------------------------------------------------------------------------



     CUMULATIVE VOLUMES      L**3       RATES FOR THIS TIME STEP      L**3/T
     ------------------                 ------------------------

           IN:                                      IN:
           ---                                      ---
        INFILTRATION =     7327208.2322          INFILTRATION =           2.9800

          OUT:                                     OUT:
          ----                                     ----
              UZF ET =   534336907.9544                UZF ET =           4.0000
        UZF RECHARGE =   474832494.6273          UZF RECHARGE =          22.9803

            IN - OUT = -1001842194.3496              IN - OUT =         -24.0003

          STORAGE:                                 STORAGE:
          --------                                 --------
      STORAGE CHANGE = -1001816403.4937        STORAGE CHANGE =         -24.0003

 PERCENT DISCREPANCY IS DIFFERENCE BETWEEN IN-OUT MINUS CHANGE IN STORAGE
 DIVIDED BY THE AVERAGE OF IN AND OUT TIMES 100

 PERCENT DISCREPANCY =          -0.00     PERCENT DISCREPANCY =           0.00






1
  VOLUMETRIC BUDGET FOR ENTIRE MODEL AT END OF TIME STEP   30, STRESS PERIOD   8
  ------------------------------------------------------------------------------

     CUMULATIVE VOLUMES      L**3       RATES FOR THIS TIME STEP      L**3/T
     ------------------                 ------------------------

           IN:                                      IN:
           ---                                      ---
             STORAGE     =    24549584.0000               STORAGE     =           6.7331
       CONSTANT HEAD     =           0.0000         CONSTANT HEAD     =           0.0000
               WELLS     =           0.0000                 WELLS     =           0.0000
     HEAD DEP BOUNDS     =     5118866.0000       HEAD DEP BOUNDS     =           0.2733
      STREAM LEAKAGE     =   216493456.0000        STREAM LEAKAGE     =          11.9131
        UZF RECHARGE     =   474832544.0000          UZF RECHARGE     =          22.9803
               GW ET     =           0.0000                 GW ET     =           0.0000
     SURFACE LEAKAGE     =           0.0000       SURFACE LEAKAGE     =           0.0000
    SUPPLEMENTARY WELLS  =           0.0000      SUPPLEMENTARY WELLS  =           0.0000

                TOTAL IN =   720994432.0000                  TOTAL IN =          41.8998

          OUT:                                     OUT:
          ----                                     ----
             STORAGE     =   473489408.0000               STORAGE     =          20.1701
       CONSTANT HEAD     =           0.0000         CONSTANT HEAD     =           0.0000
               WELLS     =           0.0000                 WELLS     =           0.0000
     HEAD DEP BOUNDS     =     5380913.5000       HEAD DEP BOUNDS     =           0.2765
      STREAM LEAKAGE     =   194355008.0000        STREAM LEAKAGE     =           7.4503
        UZF RECHARGE     =           0.0000          UZF RECHARGE     =           0.0000
               GW ET     =    47654992.0000                 GW ET     =          13.9994
     SURFACE LEAKAGE     =           0.0000       SURFACE LEAKAGE     =           0.0000
    SUPPLEMENTARY WELLS  =       31773.3008      SUPPLEMENTARY WELLS  =           0.0000

               TOTAL OUT =   720912064.0000                 TOTAL OUT =          41.8963

                IN - OUT =       82368.0000                  IN - OUT =       3.4981E-03

     PERCENT DISCREPANCY =           0.01         PERCENT DISCREPANCY =           0.01






         TIME SUMMARY AT END OF TIME STEP   30 IN STRESS PERIOD    8
                    SECONDS     MINUTES      HOURS       DAYS        YEARS
                    -----------------------------------------------------------
   TIME STEP LENGTH  87600.      1460.0      24.333      1.0139     2.77588E-03
 STRESS PERIOD TIME 2.62800E+06  43800.      730.00      30.417     8.32763E-02
         TOTAL TIME 1.84824E+07 3.08040E+05  5134.0      213.92     0.58567    
1
1
                            STRESS PERIOD NO.    9, LENGTH =   2628000.    
                            -----------------------------------------------

                              NUMBER OF TIME STEPS =    30

                               MULTIPLIER FOR DELT =     1.000

                            INITIAL TIME STEP SIZE =   87600.00    

 WELL NO.  LAYER   ROW   COL   STRESS RATE         
 --------------------------------------------------
      1      1      6      4       0.000    
      2      1      6      7       0.000    
      3      1      7      4       0.000    
      4      1      7      5       0.000    
      5      1      8      4       0.000    
      6      1      8      5       0.000    
      7      1      9      4       0.000    
      8      1      9      5       0.000    
      9      1     10      4       0.000    
     10      1     10      5       0.000    

     10 WELLS

 REUSING NON-PARAMETER GHB CELLS FROM LAST STRESS PERIOD

      2 GHB CELLS

 REUSING STREAM SEGMENT DATA FROM LAST STRESS PERIOD



            AREAL INFILTRATION RATE
 READING ON UNIT   19 WITH FORMAT: (10F4.0)            

            1           2           3           4           5           6           7           8           9          10
 ........................................................................................................................
   1    0.000       0.000       0.000       0.000       0.000       0.000       0.000       0.000       0.000       0.000    
   2    0.000       0.000       0.000       0.000       0.000       0.000       0.000       0.000       0.000       0.000    
   3    0.000       0.000       0.000       0.000       0.000       0.000       0.000       0.000       0.000       0.000    
   4    0.000       0.000       0.000       0.000       0.000       0.000       0.000       0.000       0.000       0.000    
   5    0.000       0.000       0.000       0.000       0.000       0.000       0.000       0.000       0.000       0.000    
   6    0.000       0.000       0.000       0.000       0.000       0.000       0.000       0.000       0.000       0.000    
   7    0.000       0.000       0.000       0.000       0.000       0.000       0.000       0.000       0.000       0.000    
   8    0.000       0.000       0.000       0.000       0.000       0.000       0.000       0.000       0.000       0.000    
   9    0.000       0.000       0.000       0.000       0.000       0.000       0.000       0.000       0.000       0.000    
  10    0.000       0.000       0.000       0.000       0.000       0.000       0.000       0.000       0.000       0.000    
  11    0.000       0.000       0.000       0.000       0.000       0.000       0.000       0.000       0.000       0.000    
  12    0.000       0.000       0.000       0.000       0.000       0.000       0.000       0.000       0.000       0.000    
  13    0.000       0.000       0.000       0.000       0.000       0.000       0.000       0.000       0.000       0.000    
  14    0.000       0.000       0.000       0.000       0.000       0.000       0.000       0.000       0.000       0.000    
  15    0.000       0.000       0.000       0.000       0.000       0.000       0.000       0.000       0.000       0.000    

                  ET RATE =  6.500000E-08

 USING ET EXTINCTION DEPTH FROM PREVIOUS STRESS PERIOD. CURRENT PERIOD IS:       9

 USING EXTINCTION WATER CONTENT FROM PREVIOUS STRESS PERIOD. CURRENT PERIOD IS:       9

 PROCESSING AGO STRESS PERIOD DATA

 READING AGO STRESS PERIOD DATA

 READING IRRIGATION STREAM

 READING IRRIGATION WELL

 READING SUPPLEMENTAL WEL

 END PROCESSING AGO STRESS PERIOD DATA OPTIONS
 
 SOLVING FOR HEAD 
                                                   Max.-Head-Change                         Max.-Flux-Residual
  Residual-Control   Outer-Iter.   Inner-Iter.     Column Row Layer    Maximum-Head-Change  Column Row Layer    Maximum-Flux-Residual          L2-NORM 
          0                 1           2             6   13     1      -0.1287618255E-01       6   13    1        -0.6859293784E+00      0.1958124737E+01
          0                 2           2             2   13     1       0.2787392247E-02       2   13    1         0.1585613736E+00      0.4952014563E+00
          0                 3           2             7    6     1      -0.7249796573E-01       7    6    1        -0.3994700353E+01      0.3997440538E+01
          0                 4           2             7    6     1       0.7469979155E-01       7    6    1         0.4154003080E+01      0.4159604630E+01
          0                 5           2             7    6     1      -0.1698589209E-02       7    6    1        -0.9584338093E-01      0.1034853815E+00
          0                 6           2             7    6     1      -0.3103571110E-03       7    6    1        -0.1749549869E-01      0.2184016885E-01
          0                 7           1             7    6     1      -0.5677799955E-04       7    6    1        -0.3197826261E-02      0.6501203044E-02
          0                 8           1             1    2     1       0.1923527050E-04       7    6    1        -0.5852211914E-03      0.2592501533E-02
          0                 9           1             1    2     1       0.8634398717E-05       1    2    1         0.2244697467E-03      0.1135574965E-02

    ------------------------------------------------
       NWT REQUIRED            9 OUTER ITERATIONS 
       AND A TOTAL OF         15 INNER ITERATIONS.
    ------------------------------------------------

 NO OUTPUT CONTROL FOR STRESS PERIOD    9   TIME STEP    1
 
 SOLVING FOR HEAD 
                                                   Max.-Head-Change                         Max.-Flux-Residual
  Residual-Control   Outer-Iter.   Inner-Iter.     Column Row Layer    Maximum-Head-Change  Column Row Layer    Maximum-Flux-Residual          L2-NORM 
          0                 1           2             6   13     1      -0.1257914788E-01       6   13    1        -0.6700463248E+00      0.1923680039E+01
          0                 2           2             2   13     1       0.2734626993E-02       2   13    1         0.1555470438E+00      0.4914862631E+00
     PET DIFF ERROR     6    7   -0.4582653737E-08    0.6500000094E-07
     PET DIFF ERROR     6    8   -0.4582653737E-08    0.6500000094E-07
          0                 3           2             7    6     1      -0.7249808996E-01       7    6    1        -0.3994709877E+01      0.3997437477E+01
          0                 4           2             7    6     1       0.7470192556E-01       7    6    1         0.4154124005E+01      0.4154675416E+01
     PET DIFF ERROR     6    7   -0.1944613235E-08    0.6500000094E-07
     PET DIFF ERROR     6    8   -0.1944613235E-08    0.6500000094E-07
          0                 5           2             7    6     1      -0.6947241062E-01       7    6    1        -0.3898734147E+01      0.3898896755E+01
          0                 6           2             7    6     1       0.6780716152E-01       7    6    1         0.3840021370E+01      0.3840096770E+01
     PET DIFF ERROR     6    7   -0.1716259535E-08    0.6500000094E-07
     PET DIFF ERROR     6    8   -0.1716259535E-08    0.6500000094E-07
          0                 7           2             7    6     1      -0.6548157968E-01       7    6    1        -0.3742253229E+01      0.3742309398E+01
          0                 8           2             7    6     1       0.6416324234E-01       7    6    1         0.3700342916E+01      0.3700393433E+01
     PET DIFF ERROR     6    7   -0.1084996268E-08    0.6500000094E-07
     PET DIFF ERROR     6    8   -0.1084996268E-08    0.6500000094E-07
          0                 9           2             7    6     1      -0.6205348765E-01       7    6    1        -0.3611351391E+01      0.3611398520E+01
          0                10           2             7    6     1       0.6085148020E-01       7    6    1         0.3573625762E+01      0.3573669970E+01
                                                   Max.-Head-Change                         Max.-Flux-Residual
  Residual-Control   Outer-Iter.   Inner-Iter.     Column Row Layer    Maximum-Head-Change  Column Row Layer    Maximum-Flux-Residual          L2-NORM 
          0                11           2             7    6     1       0.1197625293E-02       7    6    1         0.6990391182E-01      0.7200333481E-01
          0                12           2             7    6     1       0.2840690324E-03       7    6    1         0.1657706787E-01      0.1716399125E-01
          0                13           2             7    6     1       0.2281496765E-03       7    6    1         0.1337136807E-01      0.1347355090E-01
          0                14           1             7    6     1       0.1727921614E-04       7    6    1         0.1007060389E-02      0.1314356809E-02
          0                15           1             7    6     1      -0.7003923374E-04       7    6    1        -0.4151839248E-02      0.4246616877E-02
          0                16           2             7    6     1       0.1060411265E-03       7    6    1         0.6340555454E-02      0.6437726066E-02
          0                17           1             7    6     1      -0.6840201845E-05       7    6    1        -0.4135606007E-03      0.8448760894E-03

    ------------------------------------------------
       NWT REQUIRED           17 OUTER ITERATIONS 
       AND A TOTAL OF         31 INNER ITERATIONS.
    ------------------------------------------------

 NO OUTPUT CONTROL FOR STRESS PERIOD    9   TIME STEP    2
 
 SOLVING FOR HEAD 
                                                   Max.-Head-Change                         Max.-Flux-Residual
  Residual-Control   Outer-Iter.   Inner-Iter.     Column Row Layer    Maximum-Head-Change  Column Row Layer    Maximum-Flux-Residual          L2-NORM 
          0                 1           2             6   13     1      -0.1230245249E-01       6   13    1        -0.6553022868E+00      0.1895514299E+01
          0                 2           2             1    2     1       0.2344372665E-02       6   13    1         0.6548003986E-01      0.4012562255E+00
          0                 3           2             1    2     1       0.1052760499E-02       1    2    1         0.2736199480E-01      0.1453443448E+00
          0                 4           2             1    2     1       0.4726378882E-03       1    2    1         0.1228606703E-01      0.6295255660E-01
          0                 5           2             1    2     1       0.2121714731E-03       1    2    1         0.5515655267E-02      0.2804775538E-01
          0                 6           1             1    2     1       0.9524225554E-04       1    2    1         0.2475995445E-02      0.1254830731E-01
          0                 7           1             1    2     1       0.4275296179E-04       1    2    1         0.1111450924E-02      0.5617745712E-02
          0                 8           1             1    2     1       0.1919112090E-04       1    2    1         0.4989142989E-03      0.2515387922E-02
          0                 9           1             1    2     1       0.8614568162E-05       1    2    1         0.2239544683E-03      0.1126366484E-02

    ------------------------------------------------
       NWT REQUIRED            9 OUTER ITERATIONS 
       AND A TOTAL OF         14 INNER ITERATIONS.
    ------------------------------------------------

 NO OUTPUT CONTROL FOR STRESS PERIOD    9   TIME STEP    3
 
 SOLVING FOR HEAD 
                                                   Max.-Head-Change                         Max.-Flux-Residual
  Residual-Control   Outer-Iter.   Inner-Iter.     Column Row Layer    Maximum-Head-Change  Column Row Layer    Maximum-Flux-Residual          L2-NORM 
          0                 1           2             6   13     1      -0.1201945978E-01       6   13    1        -0.6402200535E+00      0.1863959551E+01
          0                 2           2             2   13     1       0.2652169007E-02       2   13    1         0.1508509954E+00      0.4847823623E+00
          0                 3           2             7    6     1      -0.7249785994E-01       7    6    1        -0.3994702137E+01      0.3997406035E+01
          0                 4           2             7    6     1       0.7470043361E-01       7    6    1         0.4154045432E+01      0.4155093606E+01
     PET DIFF ERROR     6    7   -0.4775465548E-08    0.6500000094E-07
     PET DIFF ERROR     6    8   -0.4775465548E-08    0.6500000094E-07
          0                 5           2             7    6     1      -0.5011380484E-01       7    6    1        -0.2812496832E+01      0.2812725645E+01
          0                 6           2             7    6     1       0.4727835819E-01       7    6    1         0.2677438857E+01      0.2677524438E+01
          0                 7           2             7    6     1       0.6094693394E-03       7    6    1         0.3417279703E-01      0.3731018833E-01
          0                 8           2             7    6     1       0.1182542955E-03       7    6    1         0.6625686113E-02      0.7651953358E-02
          0                 9           1             7    6     1       0.2296546112E-04       7    6    1         0.1285795666E-02      0.1811309121E-02
          0                10           1             7    6     1       0.4464099016E-05       7    6    1         0.2497507851E-03      0.5764783966E-03

    ------------------------------------------------
       NWT REQUIRED           10 OUTER ITERATIONS 
       AND A TOTAL OF         18 INNER ITERATIONS.
    ------------------------------------------------

 NO OUTPUT CONTROL FOR STRESS PERIOD    9   TIME STEP    4
 
 SOLVING FOR HEAD 
                                                   Max.-Head-Change                         Max.-Flux-Residual
  Residual-Control   Outer-Iter.   Inner-Iter.     Column Row Layer    Maximum-Head-Change  Column Row Layer    Maximum-Flux-Residual          L2-NORM 
          0                 1           2             6   13     1      -0.1175248142E-01       6   13    1        -0.6260102053E+00      0.1837904243E+01
          0                 2           2             1    2     1       0.2339052195E-02       2   13    1         0.1314427944E+00      0.4642193739E+00
          0                 3           2             7    6     1      -0.6154748302E-01       7    6    1        -0.3391367575E+01      0.3394519863E+01
          0                 4           2             7    6     1       0.6287621286E-01       7    6    1         0.3496511961E+01      0.3500135370E+01
          0                 5           2             7    6     1      -0.9859923215E-03       7    6    1        -0.5577501234E-01      0.6601447799E-01
          0                 6           2             7    6     1      -0.1795091452E-03       7    6    1        -0.1014451180E-01      0.1639058133E-01
          0                 7           1             1    2     1       0.4265581716E-04       7    6    1        -0.1847589720E-02      0.5915136724E-02
          0                 8           1             1    2     1       0.1914748753E-04       1    2    1         0.4977805257E-03      0.2530821382E-02
          0                 9           1             1    2     1       0.8594970461E-05       1    2    1         0.2234452312E-03      0.1124458212E-02

    ------------------------------------------------
       NWT REQUIRED            9 OUTER ITERATIONS 
       AND A TOTAL OF         15 INNER ITERATIONS.
    ------------------------------------------------

 OUTPUT CONTROL FOR STRESS PERIOD    9   TIME STEP    5
    PRINT BUDGET
    SAVE BUDGET
 UBUDSV SAVING "         STORAGE" ON UNIT102 AT TIME STEP     5, STRESS PERIOD    9
 UBUDSV SAVING "   CONSTANT HEAD" ON UNIT102 AT TIME STEP     5, STRESS PERIOD    9
 UBUDSV SAVING "FLOW RIGHT FACE " ON UNIT102 AT TIME STEP     5, STRESS PERIOD    9
 UBUDSV SAVING "FLOW FRONT FACE " ON UNIT102 AT TIME STEP     5, STRESS PERIOD    9

  HEAD DEP BOUNDS   PERIOD    9   STEP     5
 BOUNDARY      1   LAYER   1   ROW    13   COL     1   RATE   -0.275401    
 BOUNDARY      2   LAYER   1   ROW    14   COL     9   RATE    0.273242    



 STREAM LISTING     PERIOD      9   STEP        5

 LAYER ROW COL. STREAM  RCH.  FLOW INTO     FLOW TO   FLOW OUT OF   OVRLND.     DIRECT     STREAM       STREAM     STREAM     STREAM   STREAMBED  STREAMBED
                SEG.NO.  NO.  STRM. RCH.    AQUIFER    STRM. RCH.    RUNOFF     PRECIP       ET          HEAD       DEPTH      WIDTH   CONDCTNC.   GRADIENT

   1    1    1     1     1    3.5000E+01  2.8629E-01   3.4714E+01  0.000E+00  0.000E+00  0.000E+00  1.09434E+03  1.292E+00  1.482E+01  6.670E-02  1.431E+00
   1    2    2     1     2    3.4714E+01  4.4325E-01   3.4270E+01  0.000E+00  0.000E+00  0.000E+00  1.08935E+03  1.289E+00  1.476E+01  1.033E-01  1.430E+00
   1    3    3     1     3    3.4270E+01  3.7790E-01   3.3893E+01  0.000E+00  0.000E+00  0.000E+00  1.08370E+03  1.286E+00  1.470E+01  8.817E-02  1.429E+00
   1    3    4     1     4    3.3893E+01  3.4789E-01   3.3545E+01  0.000E+00  0.000E+00  0.000E+00  1.07869E+03  1.283E+00  1.464E+01  8.123E-02  1.428E+00
   1    4    5     2     1    3.1545E+01  3.4194E-01   3.1203E+01  0.000E+00  0.000E+00  0.000E+00  1.07332E+03  1.384E+00  1.200E+01  7.800E-02  1.461E+00
   1    5    6     2     2    3.1203E+01  2.6255E-01   3.0940E+01  0.000E+00  0.000E+00  0.000E+00  1.06789E+03  1.376E+00  1.200E+01  6.000E-02  1.459E+00
   1    6    6     2     3    3.0940E+01  2.6213E-01   3.0678E+01  0.000E+00  0.000E+00  0.000E+00  1.06316E+03  1.369E+00  1.200E+01  6.000E-02  1.456E+00
   1    7    6     2     4    3.0678E+01  2.6171E-01   3.0416E+01  0.000E+00  0.000E+00  0.000E+00  1.05844E+03  1.362E+00  1.200E+01  6.000E-02  1.454E+00
   1    8    6     2     5    3.0416E+01  2.6129E-01   3.0155E+01  0.000E+00  0.000E+00  0.000E+00  1.05371E+03  1.355E+00  1.200E+01  6.000E-02  1.452E+00
   1    3    5     3     1    2.0000E+00  2.8252E-01   1.7175E+00  0.000E+00  0.000E+00  0.000E+00  1.07555E+03  1.909E+00  9.636E+00  7.227E-02  1.955E+00
   1    3    6     3     2    1.7175E+00  2.4905E-01   1.4684E+00  0.000E+00  0.000E+00  0.000E+00  1.07264E+03  1.727E+00  8.909E+00  6.682E-02  1.864E+00
   1    3    7     3     3    1.4684E+00  1.9718E-01   1.2712E+00  0.000E+00  0.000E+00  0.000E+00  1.06987E+03  1.555E+00  8.218E+00  5.547E-02  1.777E+00
   1    4    8     3     4    1.2712E+00  2.2567E-01   1.0456E+00  0.000E+00  0.000E+00  0.000E+00  1.06682E+03  1.364E+00  7.455E+00  6.709E-02  1.682E+00
   1    5    8     3     5    1.0456E+00  1.5790E-01   8.8768E-01  0.000E+00  0.000E+00  0.000E+00  1.06362E+03  1.164E+00  6.655E+00  4.991E-02  1.582E+00
   1    6    8     3     6    8.8768E-01  5.5980E-02   8.3170E-01  0.000E+00  0.000E+00  0.000E+00  1.06158E+03  1.036E+00  6.145E+00  1.844E-02  1.518E+00
   1    5   10     4     1    1.0000E+01  9.0919E-02   9.9091E+00  0.000E+00  0.000E+00  0.000E+00  1.07836E+03  6.368E-01  1.000E+01  2.500E-02  1.212E+00
   1    5    9     4     2    9.9091E+00  1.8158E-01   9.7275E+00  0.000E+00  0.000E+00  0.000E+00  1.07154E+03  6.315E-01  1.000E+01  5.000E-02  1.211E+00
   1    6    8     4     3    9.7275E+00  1.2689E-01   9.6006E+00  0.000E+00  0.000E+00  0.000E+00  1.06381E+03  6.256E-01  1.000E+01  3.500E-02  1.209E+00
   1    6    8     5     1    1.0432E+01  2.2686E-01   1.0205E+01  0.000E+00  0.000E+00  0.000E+00  1.05868E+03  6.790E-01  1.542E+01  6.166E-02  1.226E+00
   1    7    7     5     2    1.0205E+01  2.7894E-01   9.9265E+00  0.000E+00  0.000E+00  0.000E+00  1.05417E+03  6.732E-01  1.519E+01  7.594E-02  1.224E+00
   1    8    7     5     3    9.9265E+00  1.9221E-01   9.7343E+00  0.000E+00  0.000E+00  0.000E+00  1.04992E+03  6.676E-01  1.497E+01  5.241E-02  1.223E+00
   1    8    6     5     4    9.7343E+00  1.3577E-01   9.5985E+00  0.000E+00  0.000E+00  0.000E+00  1.04691E+03  6.637E-01  1.482E+01  3.706E-02  1.221E+00
   1    9    6     6     1    3.5481E+01  2.7018E-01   3.5211E+01  0.000E+00  0.000E+00  0.000E+00  1.04423E+03  1.503E+00  1.200E+01  6.000E-02  1.501E+00
   1   10    7     6     2    3.5211E+01  2.6977E-01   3.4941E+01  0.000E+00  0.000E+00  0.000E+00  1.03968E+03  1.496E+00  1.200E+01  6.000E-02  1.499E+00
   1   11    7     6     3    3.4941E+01  2.6935E-01   3.4671E+01  0.000E+00  0.000E+00  0.000E+00  1.03513E+03  1.489E+00  1.200E+01  6.000E-02  1.496E+00
   1   12    7     6     4    3.4671E+01  2.6894E-01   3.4403E+01  0.000E+00  0.000E+00  0.000E+00  1.03057E+03  1.482E+00  1.200E+01  6.000E-02  1.494E+00
   1   13    7     6     5    3.4403E+01  1.0496E-02   3.4392E+01  0.000E+00  0.000E+00  0.000E+00  1.02739E+03  1.479E+00  1.200E+01  2.400E-02  1.458E-01
   1   14    9     7     1    1.5000E+02  1.1519E+00   1.4885E+02  0.000E+00  0.000E+00  0.000E+00  1.03987E+03  2.288E+00  5.530E+01  5.593E-01  6.865E-01
   1   13    8     7     2    1.4885E+02  1.6088E+00   1.4724E+02  0.000E+00  0.000E+00  0.000E+00  1.03478E+03  2.281E+00  5.526E+01  6.149E-01  8.722E-01
   1   13    7     7     3    1.4724E+02  1.5312E+00   1.4571E+02  0.000E+00  0.000E+00  0.000E+00  1.02969E+03  2.272E+00  5.523E+01  5.586E-01  9.138E-01
   1   13    6     8     1    1.8010E+02  1.0104E+00   1.7909E+02  0.000E+00  0.000E+00  0.000E+00  1.02489E+03  3.014E+00  4.370E+01  4.453E-01  7.564E-01
   1   13    5     8     2    1.7909E+02  2.6105E-01   1.7883E+02  0.000E+00  0.000E+00  0.000E+00  1.01863E+03  3.010E+00  4.364E+01  4.447E-01  1.957E-01
   1   13    4     8     3    1.7883E+02 -1.9528E+00   1.8078E+02  0.000E+00  0.000E+00  0.000E+00  1.01239E+03  3.015E+00  4.372E+01  4.455E+00 -1.461E-01
   1   13    3     8     4    1.8078E+02 -2.9757E+00   1.8376E+02  0.000E+00  0.000E+00  0.000E+00  1.00616E+03  3.030E+00  4.394E+01  4.478E+00 -2.215E-01
   1   13    2     8     5    1.8376E+02 -1.4805E+00   1.8524E+02  0.000E+00  0.000E+00  0.000E+00  9.99919E+02  3.044E+00  4.414E+01  4.498E+00 -1.097E-01
   1   13    1     8     6    1.8524E+02 -8.6822E-01   1.8611E+02  0.000E+00  0.000E+00  0.000E+00  9.94926E+02  3.051E+00  4.425E+01  2.705E+00 -1.070E-01
   1    6    8     9     1    4.2728E+00  0.0000E+00   4.2728E+00  0.000E+00  0.000E+00  0.000E+00  1.07882E+03  3.236E-01  4.000E+00  0.000E+00  1.108E+00



 UBDSV3 SAVING "     NETRECHARGE" ON UNIT 100 AT TIME STEP     5, STRESS PERIOD   9
 UBDSV3 SAVING "    NETDISCHARGE" ON UNIT 101 AT TIME STEP     5, STRESS PERIOD   9
 UBDSV3 SAVING "           GW ET" ON UNIT  61 AT TIME STEP     5, STRESS PERIOD   9
 UBDSV3 SAVING "    UZF RECHARGE" ON UNIT  61 AT TIME STEP     5, STRESS PERIOD   9
 UBDSV3 SAVING " SURFACE LEAKAGE" ON UNIT  61 AT TIME STEP     5, STRESS PERIOD   9
 UBDSV3 SAVING "       HORT+DUNN" ON UNIT  61 AT TIME STEP     5, STRESS PERIOD   9
 UBDSV3 SAVING "  STORAGE CHANGE" ON UNIT  61 AT TIME STEP     5, STRESS PERIOD   9


UNSATURATED ZONE PACKAGE VOLUMETRIC BUDGET FOR  TIME STEP     5 STRESS PERIOD    9
  ------------------------------------------------------------------------------



     CUMULATIVE VOLUMES      L**3       RATES FOR THIS TIME STEP      L**3/T
     ------------------                 ------------------------

           IN:                                      IN:
           ---                                      ---
        INFILTRATION =     8799333.4314          INFILTRATION =           4.2728

          OUT:                                     OUT:
          ----                                     ----
              UZF ET =   535758247.5482                UZF ET =           3.2500
        UZF RECHARGE =   484858883.0857          UZF RECHARGE =          22.8462

            IN - OUT = -1011817797.2025              IN - OUT =         -21.8234

          STORAGE:                                 STORAGE:
          --------                                 --------
      STORAGE CHANGE = -1011792006.3363        STORAGE CHANGE =         -21.8234

 PERCENT DISCREPANCY IS DIFFERENCE BETWEEN IN-OUT MINUS CHANGE IN STORAGE
 DIVIDED BY THE AVERAGE OF IN AND OUT TIMES 100

 PERCENT DISCREPANCY =          -0.00     PERCENT DISCREPANCY =          -0.00






1
  VOLUMETRIC BUDGET FOR ENTIRE MODEL AT END OF TIME STEP    5, STRESS PERIOD   9
  ------------------------------------------------------------------------------

     CUMULATIVE VOLUMES      L**3       RATES FOR THIS TIME STEP      L**3/T
     ------------------                 ------------------------

           IN:                                      IN:
           ---                                      ---
             STORAGE     =    26263478.0000               STORAGE     =           3.7597
       CONSTANT HEAD     =           0.0000         CONSTANT HEAD     =           0.0000
               WELLS     =           0.0000                 WELLS     =           0.0000
     HEAD DEP BOUNDS     =     5238556.0000       HEAD DEP BOUNDS     =           0.2732
      STREAM LEAKAGE     =   221698496.0000        STREAM LEAKAGE     =          11.8985
        UZF RECHARGE     =   484858912.0000          UZF RECHARGE     =          22.8462
               GW ET     =           0.0000                 GW ET     =           0.0000
     SURFACE LEAKAGE     =           0.0000       SURFACE LEAKAGE     =           0.0000
    SUPPLEMENTARY WELLS  =           0.0000      SUPPLEMENTARY WELLS  =           0.0000

                TOTAL IN =   738059456.0000                  TOTAL IN =          38.7777

          OUT:                                     OUT:
          ----                                     ----
             STORAGE     =   482237632.0000               STORAGE     =          19.8913
       CONSTANT HEAD     =           0.0000         CONSTANT HEAD     =           0.0000
               WELLS     =           0.0000                 WELLS     =           0.0000
     HEAD DEP BOUNDS     =     5501723.5000       HEAD DEP BOUNDS     =           0.2754
      STREAM LEAKAGE     =   197576080.0000        STREAM LEAKAGE     =           7.2773
        UZF RECHARGE     =           0.0000          UZF RECHARGE     =           0.0000
               GW ET     =    52627484.0000                 GW ET     =          11.3303
     SURFACE LEAKAGE     =           0.0000       SURFACE LEAKAGE     =           0.0000
    SUPPLEMENTARY WELLS  =       33514.8555      SUPPLEMENTARY WELLS  =           0.0000

               TOTAL OUT =   737976448.0000                 TOTAL OUT =          38.7743

                IN - OUT =       83008.0000                  IN - OUT =       3.4599E-03

     PERCENT DISCREPANCY =           0.01         PERCENT DISCREPANCY =           0.01






         TIME SUMMARY AT END OF TIME STEP    5 IN STRESS PERIOD    9
                    SECONDS     MINUTES      HOURS       DAYS        YEARS
                    -----------------------------------------------------------
   TIME STEP LENGTH  87600.      1460.0      24.333      1.0139     2.77588E-03
 STRESS PERIOD TIME 4.38000E+05  7300.0      121.67      5.0694     1.38794E-02
         TOTAL TIME 1.89204E+07 3.15340E+05  5255.7      218.99     0.59955    
1
 
 SOLVING FOR HEAD 
                                                   Max.-Head-Change                         Max.-Flux-Residual
  Residual-Control   Outer-Iter.   Inner-Iter.     Column Row Layer    Maximum-Head-Change  Column Row Layer    Maximum-Flux-Residual          L2-NORM 
          0                 1           2             6   13     1      -0.1148411025E-01       6   13    1        -0.6117479570E+00      0.1810713080E+01
          0                 2           2             2   13     1       0.2580704187E-02       2   13    1         0.1467777427E+00      0.4789585618E+00
          0                 3           2             7    6     1      -0.7249803432E-01       7    6    1        -0.3994717110E+01      0.3997398860E+01
          0                 4           2             7    6     1       0.7470386540E-01       7    6    1         0.4154240755E+01      0.4156121425E+01
          0                 5           2             7    6     1      -0.1702111349E-02       7    6    1        -0.9604143615E-01      0.1027010088E+00
          0                 6           2             7    6     1      -0.3110038494E-03       7    6    1        -0.1753183416E-01      0.2178635211E-01
          0                 7           1             7    6     1      -0.5689689327E-04       7    6    1        -0.3204500369E-02      0.6462680477E-02
          0                 8           1             1    2     1       0.1912584317E-04       7    6    1        -0.5864485063E-03      0.2572059415E-02
          0                 9           1             1    2     1       0.8585248395E-05       1    2    1         0.2231926158E-03      0.1126180685E-02

    ------------------------------------------------
       NWT REQUIRED            9 OUTER ITERATIONS 
       AND A TOTAL OF         15 INNER ITERATIONS.
    ------------------------------------------------

 NO OUTPUT CONTROL FOR STRESS PERIOD    9   TIME STEP    6
 
 SOLVING FOR HEAD 
     PET DIFF ERROR     6    7   -0.5053831279E-08    0.6500000094E-07
     PET DIFF ERROR     6    8   -0.5053831279E-08    0.6500000094E-07
                                                   Max.-Head-Change                         Max.-Flux-Residual
  Residual-Control   Outer-Iter.   Inner-Iter.     Column Row Layer    Maximum-Head-Change  Column Row Layer    Maximum-Flux-Residual          L2-NORM 
          0                 1           2             6   13     1      -0.1122631466E-01       6   13    1        -0.5980689851E+00      0.1786893068E+01
          0                 2           2             2   13     1       0.2438559986E-02       2   13    1         0.1386820756E+00      0.4698254817E+00
          0                 3           2             7    6     1      -0.6851975450E-01       7    6    1        -0.3775526667E+01      0.3778346455E+01
          0                 4           2             7    6     1       0.7040875696E-01       7    6    1         0.3915395321E+01      0.3919531807E+01
          0                 5           2             7    6     1      -0.1443564208E-02       7    6    1        -0.8150358741E-01      0.8951087139E-01
          0                 6           2             7    6     1      -0.2635294818E-03       7    6    1        -0.1486472708E-01      0.1967997212E-01
          0                 7           1             7    6     1      -0.4816946840E-04       7    6    1        -0.2714607617E-02      0.6224878196E-02
          0                 8           1             1    2     1       0.1910435663E-04       1    2    1         0.4966597983E-03      0.2548668750E-02
          0                 9           1             1    2     1       0.8575597861E-05       1    2    1         0.2229418497E-03      0.1122718333E-02

    ------------------------------------------------
       NWT REQUIRED            9 OUTER ITERATIONS 
       AND A TOTAL OF         15 INNER ITERATIONS.
    ------------------------------------------------

 NO OUTPUT CONTROL FOR STRESS PERIOD    9   TIME STEP    7
 
 SOLVING FOR HEAD 
                                                   Max.-Head-Change                         Max.-Flux-Residual
  Residual-Control   Outer-Iter.   Inner-Iter.     Column Row Layer    Maximum-Head-Change  Column Row Layer    Maximum-Flux-Residual          L2-NORM 
          0                 1           2             6   13     1      -0.1096882753E-01       6   13    1        -0.5843865857E+00      0.1763114328E+01
          0                 2           2             2   13     1       0.2517864454E-02       2   13    1         0.1431972443E+00      0.4736813790E+00
          0                 3           2             7    6     1      -0.7249813278E-01       7    6    1        -0.3994727844E+01      0.3997388521E+01
          0                 4           2             7    6     1       0.7470639082E-01       7    6    1         0.4154385661E+01      0.4155389987E+01
     PET DIFF ERROR     6    7   -0.4503817506E-08    0.6500000094E-07
     PET DIFF ERROR     6    8   -0.4503817506E-08    0.6500000094E-07
          0                 5           2             7    6     1      -0.5110575303E-01       7    6    1        -0.2868163143E+01      0.2868385385E+01
          0                 6           2             7    6     1       0.4832980734E-01       7    6    1         0.2736990769E+01      0.2737073395E+01
     PET DIFF ERROR     6    7   -0.2497447486E-08    0.6500000094E-07
     PET DIFF ERROR     6    8   -0.2497447485E-08    0.6500000094E-07
          0                 7           2             7    6     1      -0.4457159638E-01       7    6    1        -0.2547280140E+01      0.2547325721E+01
          0                 8           2             7    6     1       0.4354519082E-01       7    6    1         0.2511296868E+01      0.2511335981E+01
          0                 9           2             7    6     1       0.1361313864E-02       7    6    1         0.7819339617E-01      0.7919765706E-01
          0                10           2             7    6     1       0.2819063454E-03       7    6    1         0.1618087316E-01      0.1647690953E-01
                                                   Max.-Head-Change                         Max.-Flux-Residual
  Residual-Control   Outer-Iter.   Inner-Iter.     Column Row Layer    Maximum-Head-Change  Column Row Layer    Maximum-Flux-Residual          L2-NORM 
          0                11           1             7    6     1       0.5842638607E-04       7    6    1         0.3351126380E-02      0.3438217948E-02
          0                12           1             7    6     1       0.1211912930E-04       7    6    1         0.6946039025E-03      0.7230023998E-03
          0                13           1             7    6     1       0.2515899962E-05       7    6    1         0.1440926903E-03      0.1563731047E-03

    ------------------------------------------------
       NWT REQUIRED           13 OUTER ITERATIONS 
       AND A TOTAL OF         23 INNER ITERATIONS.
    ------------------------------------------------

 NO OUTPUT CONTROL FOR STRESS PERIOD    9   TIME STEP    8
 
 SOLVING FOR HEAD 
                                                   Max.-Head-Change                         Max.-Flux-Residual
  Residual-Control   Outer-Iter.   Inner-Iter.     Column Row Layer    Maximum-Head-Change  Column Row Layer    Maximum-Flux-Residual          L2-NORM 
          0                 1           2             6   13     1      -0.1072358697E-01       6   13    1        -0.5713820776E+00      0.1743138279E+01
          0                 2           2             1    2     1       0.2328624812E-02       2   13    1         0.1281389621E+00      0.4578339271E+00
     PET DIFF ERROR     6    7   -0.3529682544E-07    0.6500000094E-07
     PET DIFF ERROR     6    8   -0.3529682544E-07    0.6500000094E-07
          0                 3           2             7    6     1      -0.6395582130E-01       7    6    1        -0.3524070323E+01      0.3527060830E+01
          0                 4           2             7    6     1       0.6548202815E-01       7    6    1         0.3641427291E+01      0.3645541774E+01
          0                 5           2             7    6     1      -0.1147546374E-02       7    6    1        -0.6485876799E-01      0.7416144828E-01
          0                 6           2             7    6     1      -0.2091749127E-03       7    6    1        -0.1181108507E-01      0.1742952314E-01
          0                 7           1             1    2     1       0.4246541388E-04       7    6    1        -0.2153717861E-02      0.5983655444E-02
          0                 8           1             1    2     1       0.1906196706E-04       1    2    1         0.4955583409E-03      0.2522548006E-02
          0                 9           1             1    2     1       0.8556558157E-05       1    2    1         0.2224471207E-03      0.1117698999E-02

    ------------------------------------------------
       NWT REQUIRED            9 OUTER ITERATIONS 
       AND A TOTAL OF         15 INNER ITERATIONS.
    ------------------------------------------------

 NO OUTPUT CONTROL FOR STRESS PERIOD    9   TIME STEP    9
 
 SOLVING FOR HEAD 
                                                   Max.-Head-Change                         Max.-Flux-Residual
  Residual-Control   Outer-Iter.   Inner-Iter.     Column Row Layer    Maximum-Head-Change  Column Row Layer    Maximum-Flux-Residual          L2-NORM 
          0                 1           2             6   13     1      -0.1047563826E-01       6   13    1        -0.5582269145E+00      0.1722043550E+01
          0                 2           2             2   13     1       0.2465564081E-02       4   13    1         0.1403469675E+00      0.4690946531E+00
          0                 3           2             7    6     1      -0.7249817419E-01       7    6    1        -0.3994735392E+01      0.3997376114E+01
          0                 4           2             7    6     1       0.7470823380E-01       7    6    1         0.4154492608E+01      0.4155723675E+01
     PET DIFF ERROR     6    7   -0.3965712701E-08    0.6500000094E-07
     PET DIFF ERROR     6    8   -0.3965712701E-08    0.6500000094E-07
          0                 5           2             7    6     1      -0.4650402775E-01       7    6    1        -0.2609955544E+01      0.2610201008E+01
          0                 6           2             7    6     1       0.4344975080E-01       7    6    1         0.2460624782E+01      0.2460703275E+01
          0                 7           2             7    6     1       0.7799431309E-03       7    6    1         0.4385241826E-01      0.4601669365E-01
          0                 8           2             7    6     1       0.1507887544E-03       7    6    1         0.8471601350E-02      0.9243842244E-02
          0                 9           1             7    6     1       0.2918055286E-04       7    6    1         0.1638150958E-02      0.2065189595E-02
          0                10           1             7    6     1       0.5652525282E-05       7    6    1         0.3170745586E-03      0.6042792936E-03

    ------------------------------------------------
       NWT REQUIRED           10 OUTER ITERATIONS 
       AND A TOTAL OF         18 INNER ITERATIONS.
    ------------------------------------------------

 OUTPUT CONTROL FOR STRESS PERIOD    9   TIME STEP   10
    PRINT BUDGET
    SAVE BUDGET
 UBUDSV SAVING "         STORAGE" ON UNIT102 AT TIME STEP    10, STRESS PERIOD    9
 UBUDSV SAVING "   CONSTANT HEAD" ON UNIT102 AT TIME STEP    10, STRESS PERIOD    9
 UBUDSV SAVING "FLOW RIGHT FACE " ON UNIT102 AT TIME STEP    10, STRESS PERIOD    9
 UBUDSV SAVING "FLOW FRONT FACE " ON UNIT102 AT TIME STEP    10, STRESS PERIOD    9

  HEAD DEP BOUNDS   PERIOD    9   STEP    10
 BOUNDARY      1   LAYER   1   ROW    13   COL     1   RATE   -0.274534    
 BOUNDARY      2   LAYER   1   ROW    14   COL     9   RATE    0.273185    



 STREAM LISTING     PERIOD      9   STEP       10

 LAYER ROW COL. STREAM  RCH.  FLOW INTO     FLOW TO   FLOW OUT OF   OVRLND.     DIRECT     STREAM       STREAM     STREAM     STREAM   STREAMBED  STREAMBED
                SEG.NO.  NO.  STRM. RCH.    AQUIFER    STRM. RCH.    RUNOFF     PRECIP       ET          HEAD       DEPTH      WIDTH   CONDCTNC.   GRADIENT

   1    1    1     1     1    3.5000E+01  2.8629E-01   3.4714E+01  0.000E+00  0.000E+00  0.000E+00  1.09434E+03  1.292E+00  1.482E+01  6.670E-02  1.431E+00
   1    2    2     1     2    3.4714E+01  4.4325E-01   3.4270E+01  0.000E+00  0.000E+00  0.000E+00  1.08935E+03  1.289E+00  1.476E+01  1.033E-01  1.430E+00
   1    3    3     1     3    3.4270E+01  3.7790E-01   3.3893E+01  0.000E+00  0.000E+00  0.000E+00  1.08370E+03  1.286E+00  1.470E+01  8.817E-02  1.429E+00
   1    3    4     1     4    3.3893E+01  3.4789E-01   3.3545E+01  0.000E+00  0.000E+00  0.000E+00  1.07869E+03  1.283E+00  1.464E+01  8.123E-02  1.428E+00
   1    4    5     2     1    3.1545E+01  3.4194E-01   3.1203E+01  0.000E+00  0.000E+00  0.000E+00  1.07332E+03  1.384E+00  1.200E+01  7.800E-02  1.461E+00
   1    5    6     2     2    3.1203E+01  2.6255E-01   3.0940E+01  0.000E+00  0.000E+00  0.000E+00  1.06789E+03  1.376E+00  1.200E+01  6.000E-02  1.459E+00
   1    6    6     2     3    3.0940E+01  2.6213E-01   3.0678E+01  0.000E+00  0.000E+00  0.000E+00  1.06316E+03  1.369E+00  1.200E+01  6.000E-02  1.456E+00
   1    7    6     2     4    3.0678E+01  2.6171E-01   3.0416E+01  0.000E+00  0.000E+00  0.000E+00  1.05844E+03  1.362E+00  1.200E+01  6.000E-02  1.454E+00
   1    8    6     2     5    3.0416E+01  2.6129E-01   3.0155E+01  0.000E+00  0.000E+00  0.000E+00  1.05371E+03  1.355E+00  1.200E+01  6.000E-02  1.452E+00
   1    3    5     3     1    2.0000E+00  2.8252E-01   1.7175E+00  0.000E+00  0.000E+00  0.000E+00  1.07555E+03  1.909E+00  9.636E+00  7.227E-02  1.955E+00
   1    3    6     3     2    1.7175E+00  2.4905E-01   1.4684E+00  0.000E+00  0.000E+00  0.000E+00  1.07264E+03  1.727E+00  8.909E+00  6.682E-02  1.864E+00
   1    3    7     3     3    1.4684E+00  1.9718E-01   1.2712E+00  0.000E+00  0.000E+00  0.000E+00  1.06987E+03  1.555E+00  8.218E+00  5.547E-02  1.777E+00
   1    4    8     3     4    1.2712E+00  2.2567E-01   1.0456E+00  0.000E+00  0.000E+00  0.000E+00  1.06682E+03  1.364E+00  7.455E+00  6.709E-02  1.682E+00
   1    5    8     3     5    1.0456E+00  1.5790E-01   8.8768E-01  0.000E+00  0.000E+00  0.000E+00  1.06362E+03  1.164E+00  6.655E+00  4.991E-02  1.582E+00
   1    6    8     3     6    8.8768E-01  5.5980E-02   8.3170E-01  0.000E+00  0.000E+00  0.000E+00  1.06158E+03  1.036E+00  6.145E+00  1.844E-02  1.518E+00
   1    5   10     4     1    1.0000E+01  9.0919E-02   9.9091E+00  0.000E+00  0.000E+00  0.000E+00  1.07836E+03  6.368E-01  1.000E+01  2.500E-02  1.212E+00
   1    5    9     4     2    9.9091E+00  1.8158E-01   9.7275E+00  0.000E+00  0.000E+00  0.000E+00  1.07154E+03  6.315E-01  1.000E+01  5.000E-02  1.211E+00
   1    6    8     4     3    9.7275E+00  1.2689E-01   9.6006E+00  0.000E+00  0.000E+00  0.000E+00  1.06381E+03  6.256E-01  1.000E+01  3.500E-02  1.209E+00
   1    6    8     5     1    1.0432E+01  2.2686E-01   1.0205E+01  0.000E+00  0.000E+00  0.000E+00  1.05868E+03  6.790E-01  1.542E+01  6.166E-02  1.226E+00
   1    7    7     5     2    1.0205E+01  2.7894E-01   9.9265E+00  0.000E+00  0.000E+00  0.000E+00  1.05417E+03  6.732E-01  1.519E+01  7.594E-02  1.224E+00
   1    8    7     5     3    9.9265E+00  1.9221E-01   9.7343E+00  0.000E+00  0.000E+00  0.000E+00  1.04992E+03  6.676E-01  1.497E+01  5.241E-02  1.223E+00
   1    8    6     5     4    9.7343E+00  1.3577E-01   9.5985E+00  0.000E+00  0.000E+00  0.000E+00  1.04691E+03  6.637E-01  1.482E+01  3.706E-02  1.221E+00
   1    9    6     6     1    3.7685E+01  2.7351E-01   3.7411E+01  0.000E+00  0.000E+00  0.000E+00  1.04429E+03  1.559E+00  1.200E+01  6.000E-02  1.520E+00
   1   10    7     6     2    3.7411E+01  2.7310E-01   3.7138E+01  0.000E+00  0.000E+00  0.000E+00  1.03973E+03  1.552E+00  1.200E+01  6.000E-02  1.517E+00
   1   11    7     6     3    3.7138E+01  2.7269E-01   3.6865E+01  0.000E+00  0.000E+00  0.000E+00  1.03518E+03  1.545E+00  1.200E+01  6.000E-02  1.515E+00
   1   12    7     6     4    3.6865E+01  2.7228E-01   3.6593E+01  0.000E+00  0.000E+00  0.000E+00  1.03063E+03  1.538E+00  1.200E+01  6.000E-02  1.513E+00
   1   13    7     6     5    3.6593E+01  1.2670E-02   3.6580E+01  0.000E+00  0.000E+00  0.000E+00  1.02744E+03  1.534E+00  1.200E+01  2.400E-02  1.760E-01
   1   14    9     7     1    1.5000E+02  1.1511E+00   1.4885E+02  0.000E+00  0.000E+00  0.000E+00  1.03987E+03  2.288E+00  5.530E+01  5.593E-01  6.860E-01
   1   13    8     7     2    1.4885E+02  1.6173E+00   1.4723E+02  0.000E+00  0.000E+00  0.000E+00  1.03478E+03  2.281E+00  5.526E+01  6.149E-01  8.768E-01
   1   13    7     7     3    1.4723E+02  1.5506E+00   1.4568E+02  0.000E+00  0.000E+00  0.000E+00  1.02969E+03  2.272E+00  5.523E+01  5.585E-01  9.254E-01
   1   13    6     8     1    1.8226E+02  1.0429E+00   1.8122E+02  0.000E+00  0.000E+00  0.000E+00  1.02490E+03  3.027E+00  4.389E+01  4.473E-01  7.772E-01
   1   13    5     8     2    1.8122E+02  2.8204E-01   1.8094E+02  0.000E+00  0.000E+00  0.000E+00  1.01865E+03  3.023E+00  4.383E+01  4.467E-01  2.105E-01
   1   13    4     8     3    1.8094E+02 -1.8239E+00   1.8276E+02  0.000E+00  0.000E+00  0.000E+00  1.01240E+03  3.028E+00  4.390E+01  4.474E+00 -1.359E-01
   1   13    3     8     4    1.8276E+02 -2.8682E+00   1.8563E+02  0.000E+00  0.000E+00  0.000E+00  1.00617E+03  3.042E+00  4.411E+01  4.495E+00 -2.127E-01
   1   13    2     8     5    1.8563E+02 -1.3464E+00   1.8697E+02  0.000E+00  0.000E+00  0.000E+00  9.99930E+02  3.055E+00  4.430E+01  4.515E+00 -9.941E-02
   1   13    1     8     6    1.8697E+02 -7.8098E-01   1.8776E+02  0.000E+00  0.000E+00  0.000E+00  9.94937E+02  3.062E+00  4.440E+01  2.715E+00 -9.590E-02
   1    6    8     9     1    2.0690E+00  0.0000E+00   2.0690E+00  0.000E+00  0.000E+00  0.000E+00  1.07871E+03  2.094E-01  4.000E+00  0.000E+00  1.070E+00



 UBDSV3 SAVING "     NETRECHARGE" ON UNIT 100 AT TIME STEP    10, STRESS PERIOD   9
 UBDSV3 SAVING "    NETDISCHARGE" ON UNIT 101 AT TIME STEP    10, STRESS PERIOD   9
 UBDSV3 SAVING "           GW ET" ON UNIT  61 AT TIME STEP    10, STRESS PERIOD   9
 UBDSV3 SAVING "    UZF RECHARGE" ON UNIT  61 AT TIME STEP    10, STRESS PERIOD   9
 UBDSV3 SAVING " SURFACE LEAKAGE" ON UNIT  61 AT TIME STEP    10, STRESS PERIOD   9
 UBDSV3 SAVING "       HORT+DUNN" ON UNIT  61 AT TIME STEP    10, STRESS PERIOD   9
 UBDSV3 SAVING "  STORAGE CHANGE" ON UNIT  61 AT TIME STEP    10, STRESS PERIOD   9


UNSATURATED ZONE PACKAGE VOLUMETRIC BUDGET FOR  TIME STEP    10 STRESS PERIOD    9
  ------------------------------------------------------------------------------



     CUMULATIVE VOLUMES      L**3       RATES FOR THIS TIME STEP      L**3/T
     ------------------                 ------------------------

           IN:                                      IN:
           ---                                      ---
        INFILTRATION =    10141005.5095          INFILTRATION =           2.0690

          OUT:                                     OUT:
          ----                                     ----
              UZF ET =   537181747.5482                UZF ET =           3.2500
        UZF RECHARGE =   494844384.6168          UZF RECHARGE =          22.7661

            IN - OUT = -1021885126.6555              IN - OUT =         -23.9471

          STORAGE:                                 STORAGE:
          --------                                 --------
      STORAGE CHANGE = -1021859335.7580        STORAGE CHANGE =         -23.9471

 PERCENT DISCREPANCY IS DIFFERENCE BETWEEN IN-OUT MINUS CHANGE IN STORAGE
 DIVIDED BY THE AVERAGE OF IN AND OUT TIMES 100

 PERCENT DISCREPANCY =          -0.00     PERCENT DISCREPANCY =           0.00






1
  VOLUMETRIC BUDGET FOR ENTIRE MODEL AT END OF TIME STEP   10, STRESS PERIOD   9
  ------------------------------------------------------------------------------

     CUMULATIVE VOLUMES      L**3       RATES FOR THIS TIME STEP      L**3/T
     ------------------                 ------------------------

           IN:                                      IN:
           ---                                      ---
             STORAGE     =    27721352.0000               STORAGE     =           3.0395
       CONSTANT HEAD     =           0.0000         CONSTANT HEAD     =           0.0000
               WELLS     =           0.0000                 WELLS     =           0.0000
     HEAD DEP BOUNDS     =     5358221.0000       HEAD DEP BOUNDS     =           0.2732
      STREAM LEAKAGE     =   226934880.0000        STREAM LEAKAGE     =          11.9946
        UZF RECHARGE     =   494844416.0000          UZF RECHARGE     =          22.7661
               GW ET     =           0.0000                 GW ET     =           0.0000
     SURFACE LEAKAGE     =           0.0000       SURFACE LEAKAGE     =           0.0000
    SUPPLEMENTARY WELLS  =           0.0000      SUPPLEMENTARY WELLS  =           0.0000

                TOTAL IN =   754858880.0000                  TOTAL IN =          38.0734

          OUT:                                     OUT:
          ----                                     ----
             STORAGE     =   490905728.0000               STORAGE     =          19.7259
       CONSTANT HEAD     =           0.0000         CONSTANT HEAD     =           0.0000
               WELLS     =           0.0000                 WELLS     =           0.0000
     HEAD DEP BOUNDS     =     5622113.5000       HEAD DEP BOUNDS     =           0.2745
      STREAM LEAKAGE     =   200643536.0000        STREAM LEAKAGE     =           6.8195
        UZF RECHARGE     =           0.0000          UZF RECHARGE     =           0.0000
               GW ET     =    57569948.0000                 GW ET     =          11.2518
     SURFACE LEAKAGE     =           0.0000       SURFACE LEAKAGE     =           0.0000
    SUPPLEMENTARY WELLS  =       33514.8555      SUPPLEMENTARY WELLS  =           0.0000

               TOTAL OUT =   754774848.0000                 TOTAL OUT =          38.0718

                IN - OUT =       84032.0000                  IN - OUT =       1.6556E-03

     PERCENT DISCREPANCY =           0.01         PERCENT DISCREPANCY =           0.00






         TIME SUMMARY AT END OF TIME STEP   10 IN STRESS PERIOD    9
                    SECONDS     MINUTES      HOURS       DAYS        YEARS
                    -----------------------------------------------------------
   TIME STEP LENGTH  87600.      1460.0      24.333      1.0139     2.77588E-03
 STRESS PERIOD TIME 8.76000E+05  14600.      243.33      10.139     2.77588E-02
         TOTAL TIME 1.93584E+07 3.22640E+05  5377.3      224.06     0.61343    
1
 
 SOLVING FOR HEAD 
     PET DIFF ERROR     6    7   -0.6535915808E-08    0.6500000094E-07
     PET DIFF ERROR     6    8   -0.6535915808E-08    0.6500000094E-07
                                                   Max.-Head-Change                         Max.-Flux-Residual
  Residual-Control   Outer-Iter.   Inner-Iter.     Column Row Layer    Maximum-Head-Change  Column Row Layer    Maximum-Flux-Residual          L2-NORM 
          0                 1           2             6   13     1      -0.1023964368E-01       6   13    1        -0.5457124479E+00      0.1704331694E+01
          0                 2           2             1    2     1       0.2323512222E-02       4   13    1         0.1308521149E+00      0.4586569236E+00
          0                 3           2             7    6     1      -0.6722273723E-01       7    6    1        -0.3704074207E+01      0.3706903528E+01
          0                 4           2             7    6     1       0.6901164717E-01       7    6    1         0.3837711281E+01      0.3843128715E+01
          0                 5           2             7    6     1      -0.1362086002E-02       7    6    1        -0.7692208756E-01      0.8553156641E-01
          0                 6           2             7    6     1      -0.2485687874E-03       7    6    1        -0.1402422503E-01      0.1899963411E-01
          0                 7           1             7    6     1      -0.4541923510E-04       7    6    1        -0.2560227885E-02      0.6126009144E-02
          0                 8           1             1    2     1       0.1902003244E-04       1    2    1         0.4944687114E-03      0.2527336398E-02
          0                 9           1             1    2     1       0.8537723295E-05       1    2    1         0.2219577098E-03      0.1115080879E-02

    ------------------------------------------------
       NWT REQUIRED            9 OUTER ITERATIONS 
       AND A TOTAL OF         15 INNER ITERATIONS.
    ------------------------------------------------

 NO OUTPUT CONTROL FOR STRESS PERIOD    9   TIME STEP   11
 
 SOLVING FOR HEAD 
                                                   Max.-Head-Change                         Max.-Flux-Residual
  Residual-Control   Outer-Iter.   Inner-Iter.     Column Row Layer    Maximum-Head-Change  Column Row Layer    Maximum-Flux-Residual          L2-NORM 
          0                 1           2             6   13     1      -0.9999761844E-02       6   13    1        -0.5329653729E+00      0.1685731824E+01
          0                 2           2             2   13     1       0.2418992161E-02       4   13    1         0.1380064891E+00      0.4648961525E+00
          0                 3           2             7    6     1      -0.7249816192E-01       7    6    1        -0.3994739942E+01      0.3997361486E+01
          0                 4           2             7    6     1       0.7470943185E-01       7    6    1         0.4154563685E+01      0.4155195691E+01
     PET DIFF ERROR     6    7   -0.2339399899E-08    0.6500000094E-07
     PET DIFF ERROR     6    8   -0.2339399899E-08    0.6500000094E-07
          0                 5           2             7    6     1      -0.6240315170E-01       7    6    1        -0.3502087073E+01      0.3502265096E+01
          0                 6           2             7    6     1       0.6030994297E-01       7    6    1         0.3415459185E+01      0.3415531107E+01
          0                 7           2             7    6     1      -0.4111035457E-03       7    6    1        -0.2392003392E-01      0.3019988602E-01
          0                 8           1             7    6     1      -0.7111393833E-04       7    6    1        -0.4142807470E-02      0.5955956213E-02
          0                 9           1             7    6     1       0.4736131282E-04       7    6    1         0.2716326632E-02      0.3216673815E-02
          0                10           1             7    6     1      -0.7311647861E-04       7    6    1        -0.4257870935E-02      0.4401025260E-02
                                                   Max.-Head-Change                         Max.-Flux-Residual
  Residual-Control   Outer-Iter.   Inner-Iter.     Column Row Layer    Maximum-Head-Change  Column Row Layer    Maximum-Flux-Residual          L2-NORM 
          0                11           1             2   13     1      -0.1160559374E-04       4   13    1        -0.6960419732E-03      0.1424627851E-02
          0                12           1             7    6     1       0.3994432858E-04       7    6    1         0.2345420434E-02      0.2616930348E-02
          0                13           1             7    6     1       0.4439520285E-04       7    6    1         0.2606528116E-02      0.2807768513E-02
          0                14           1             7    6     1      -0.7041612908E-04       7    6    1        -0.4172809401E-02      0.4276789808E-02
          0                15           1             7    6     1      -0.2215757560E-04       7    6    1        -0.1312457972E-02      0.1772604067E-02
     PET DIFF ERROR     6    7   -0.5925709616E-09    0.6500000094E-07
     PET DIFF ERROR     6    8   -0.5925709616E-09    0.6500000094E-07
          0                16           1             2   13     1      -0.1116932638E-04       4   13    1        -0.6701828042E-03      0.1337929751E-02
     PET DIFF ERROR     6    7   -0.6161207964E-09    0.6500000094E-07
     PET DIFF ERROR     6    8   -0.6161207964E-09    0.6500000094E-07
          0                17           1             7    6     1      -0.1845996053E-04       7    6    1        -0.1093663071E-02      0.1635063311E-02
     PET DIFF ERROR     6    7   -0.8469703914E-09    0.6500000094E-07
     PET DIFF ERROR     6    8   -0.8469703914E-09    0.6500000094E-07
          0                18           2             7    6     1      -0.5123754705E-01       7    6    1        -0.3035894125E+01      0.3035894389E+01
          0                19           2             7    6     1       0.4854170380E-01       7    6    1         0.2902683508E+01      0.2902726544E+01
     PET DIFF ERROR     6    7   -0.1057470170E-08    0.6500000094E-07
     PET DIFF ERROR     6    8   -0.1057470169E-08    0.6500000094E-07
          0                20           2             7    6     1      -0.4770570044E-01       7    6    1        -0.2878536276E+01      0.2878559794E+01
                                                   Max.-Head-Change                         Max.-Flux-Residual
  Residual-Control   Outer-Iter.   Inner-Iter.     Column Row Layer    Maximum-Head-Change  Column Row Layer    Maximum-Flux-Residual          L2-NORM 
          0                21           2             7    6     1       0.4684691529E-01       7    6    1         0.2852371405E+01      0.2852398118E+01
     PET DIFF ERROR     6    7   -0.1610296358E-08    0.6500000094E-07
     PET DIFF ERROR     6    8   -0.1610296358E-08    0.6500000094E-07
          0                22           2             7    6     1      -0.4551191108E-01       7    6    1        -0.2796227784E+01      0.2796252208E+01
          0                23           2             7    6     1       0.4471592702E-01       7    6    1         0.2772184233E+01      0.2772209408E+01
     PET DIFF ERROR     6    7   -0.2442975467E-08    0.6500000094E-07
     PET DIFF ERROR     6    8   -0.2442975467E-08    0.6500000094E-07
          0                24           2             7    6     1      -0.4306037075E-01       7    6    1        -0.2693723179E+01      0.2693745910E+01
          0                25           2             7    6     1       0.4234282081E-01       7    6    1         0.2672752287E+01      0.2672778385E+01
     PET DIFF ERROR     6    7   -0.2281800108E-08    0.6500000094E-07
     PET DIFF ERROR     6    8   -0.2281800108E-08    0.6500000094E-07
          0                26           2             7    6     1      -0.4018257621E-01       7    6    1        -0.2559319564E+01      0.2559340599E+01
          0                27           2             7    6     1       0.3957009929E-01       7    6    1         0.2543013382E+01      0.2543036668E+01
          0                28           2             7    6     1       0.4428810972E-02       7    6    1         0.2843600823E+00      0.2845224500E+00
          0                29           2             7    6     1       0.1274614587E-02       7    6    1         0.8181096929E-01      0.8190307396E-01
          0                30           2             7    6     1       0.3669235837E-03       7    6    1         0.2354354594E-01      0.2358582524E-01
                                                   Max.-Head-Change                         Max.-Flux-Residual
  Residual-Control   Outer-Iter.   Inner-Iter.     Column Row Layer    Maximum-Head-Change  Column Row Layer    Maximum-Flux-Residual          L2-NORM 
          0                31           2             7    6     1       0.1056493983E-03       7    6    1         0.6777013005E-02      0.6794256777E-02
          0                32           1             7    6     1       0.3042592547E-04       7    6    1         0.1951194653E-02      0.1957720074E-02
          0                33           1             7    6     1       0.8763902778E-05       7    6    1         0.5618875084E-03      0.5642349301E-03

    ------------------------------------------------
       NWT REQUIRED           33 OUTER ITERATIONS 
       AND A TOTAL OF         54 INNER ITERATIONS.
    ------------------------------------------------

 NO OUTPUT CONTROL FOR STRESS PERIOD    9   TIME STEP   12
 
 SOLVING FOR HEAD 
                                                   Max.-Head-Change                         Max.-Flux-Residual
  Residual-Control   Outer-Iter.   Inner-Iter.     Column Row Layer    Maximum-Head-Change  Column Row Layer    Maximum-Flux-Residual          L2-NORM 
          0                 1           2             6   13     1      -0.9774779010E-02       6   13    1        -0.5210425756E+00      0.1670752889E+01
          0                 2           2             1    2     1       0.2318447339E-02       4   13    1         0.1180214836E+00      0.4447686639E+00
          0                 3           2             7    6     1      -0.6060040345E-01       7    6    1        -0.3339204123E+01      0.3342309552E+01
          0                 4           2             7    6     1       0.6186073622E-01       7    6    1         0.3440056666E+01      0.3442315668E+01
          0                 5           2             7    6     1      -0.9306278998E-03       7    6    1        -0.5266166430E-01      0.6269861721E-01
          0                 6           2             7    6     1      -0.1693443969E-03       7    6    1        -0.9573409902E-02      0.1590227693E-01
          0                 7           1             1    2     1       0.4227955786E-04       7    6    1        -0.1742702853E-02      0.5814180191E-02
          0                 8           1             1    2     1       0.1897848800E-04       1    2    1         0.4933892138E-03      0.2496408640E-02
          0                 9           1             1    2     1       0.8519063010E-05       1    2    1         0.2214728420E-03      0.1109941683E-02

    ------------------------------------------------
       NWT REQUIRED            9 OUTER ITERATIONS 
       AND A TOTAL OF         15 INNER ITERATIONS.
    ------------------------------------------------

 NO OUTPUT CONTROL FOR STRESS PERIOD    9   TIME STEP   13
 
 SOLVING FOR HEAD 
                                                   Max.-Head-Change                         Max.-Flux-Residual
  Residual-Control   Outer-Iter.   Inner-Iter.     Column Row Layer    Maximum-Head-Change  Column Row Layer    Maximum-Flux-Residual          L2-NORM 
          0                 1           2             6   13     1      -0.9548876056E-02       6   13    1        -0.5090556698E+00      0.1655344424E+01
          0                 2           2             2   13     1       0.2384643611E-02       4   13    1         0.1364983881E+00      0.4614603042E+00
          0                 3           2             7    6     1      -0.7249810168E-01       7    6    1        -0.3994741808E+01      0.3997345325E+01
          0                 4           2             7    6     1       0.7471005623E-01       7    6    1         0.4154602856E+01      0.4160377921E+01
          0                 5           2             7    6     1      -0.1707472680E-02       7    6    1        -0.9634294501E-01      0.1038336501E+00
          0                 6           2             7    6     1      -0.3119881692E-03       7    6    1        -0.1758714084E-01      0.2176032631E-01
          0                 7           1             7    6     1      -0.5707782905E-04       7    6    1        -0.3214657828E-02      0.6405471688E-02
          0                 8           1             1    2     1       0.1895804642E-04       7    6    1        -0.5883162182E-03      0.2540993426E-02
          0                 9           1             1    2     1       0.8509881184E-05       1    2    1         0.2212342647E-03      0.1111825700E-02

    ------------------------------------------------
       NWT REQUIRED            9 OUTER ITERATIONS 
       AND A TOTAL OF         15 INNER ITERATIONS.
    ------------------------------------------------

 NO OUTPUT CONTROL FOR STRESS PERIOD    9   TIME STEP   14
 
 SOLVING FOR HEAD 
                                                   Max.-Head-Change                         Max.-Flux-Residual
  Residual-Control   Outer-Iter.   Inner-Iter.     Column Row Layer    Maximum-Head-Change  Column Row Layer    Maximum-Flux-Residual          L2-NORM 
          0                 1           2             6   13     1      -0.9323013908E-02       6   13    1        -0.4970385379E+00      0.1640196983E+01
          0                 2           2             2   13     1       0.2362809623E-02       4   13    1         0.1353408575E+00      0.4595424544E+00
          0                 3           2             7    6     1      -0.7249805965E-01       7    6    1        -0.3994742072E+01      0.3997337150E+01
          0                 4           2             7    6     1       0.7471022073E-01       7    6    1         0.4154614228E+01      0.4155165171E+01
     PET DIFF ERROR     6    7   -0.3779904276E-08    0.6500000094E-07
     PET DIFF ERROR     6    8   -0.3779904276E-08    0.6500000094E-07
          0                 5           2             7    6     1      -0.6724256321E-01       7    6    1        -0.3773641505E+01      0.3773805295E+01
          0                 6           2             7    6     1       0.6544186171E-01       7    6    1         0.3706096894E+01      0.3706177510E+01
          0                 7           2             7    6     1      -0.6586577578E-03       7    6    1        -0.3810164644E-01      0.4295359457E-01
          0                 8           1             7    5     1       0.3212931624E-04       7    6    1        -0.1878613903E-02      0.4820767223E-02
          0                 9           1             7    6     1      -0.7381932308E-04       7    6    1        -0.4234130676E-02      0.4523815424E-02
          0                10           1             7    6     1       0.9288573014E-04       7    6    1         0.5353626866E-02      0.5501035200E-02
                                                   Max.-Head-Change                         Max.-Flux-Residual
  Residual-Control   Outer-Iter.   Inner-Iter.     Column Row Layer    Maximum-Head-Change  Column Row Layer    Maximum-Flux-Residual          L2-NORM 
          0                11           1             7    6     1      -0.2949813271E-04       7    6    1        -0.1717706778E-02      0.1917805033E-02
          0                12           1             7    6     1      -0.1004852826E-03       7    6    1        -0.5847140313E-02      0.5930471999E-02
          0                13           1             7    6     1       0.5952515409E-04       7    6    1         0.3496068878E-02      0.3719303629E-02
          0                14           1             7    6     1      -0.6323278766E-04       7    6    1        -0.3747093898E-02      0.3879910976E-02
          0                15           1             7    6     1       0.4919043192E-04       7    6    1         0.2941669248E-02      0.3198729320E-02
          0                16           1             7    6     1      -0.7194684586E-04       7    6    1        -0.4341283354E-02      0.4465388581E-02
          0                17           1             7    6     1       0.2328628609E-04       7    6    1         0.1418262022E-02      0.1936959887E-02
          0                18           1             7    6     1       0.5784732492E-04       7    6    1         0.3521857475E-02      0.3713568784E-02
          0                19           1             7    6     1      -0.6565372693E-04       7    6    1        -0.4033924691E-02      0.4160144516E-02
          0                20           1             2   13     1      -0.1192711998E-04       4   13    1        -0.7156346255E-03      0.1299144026E-02
                                                   Max.-Head-Change                         Max.-Flux-Residual
  Residual-Control   Outer-Iter.   Inner-Iter.     Column Row Layer    Maximum-Head-Change  Column Row Layer    Maximum-Flux-Residual          L2-NORM 
          0                21           1             7    6     1       0.1903015428E-04       7    6    1         0.1179825582E-02      0.1703463001E-02
          0                22           1             7    6     1       0.2043228491E-04       7    6    1         0.1266485041E-02      0.1720869046E-02
          0                23           1             7    6     1       0.1483929311E-04       7    6    1         0.9196910801E-03      0.1446601208E-02
     PET DIFF ERROR     6    7   -0.5256530884E-09    0.6500000094E-07
     PET DIFF ERROR     6    8   -0.5256530883E-09    0.6500000094E-07
          0                24           1             2   13     1      -0.1011920755E-04       4   13    1        -0.6074870162E-03      0.1167086270E-02
     PET DIFF ERROR     6    7   -0.5327183797E-09    0.6500000094E-07
     PET DIFF ERROR     6    8   -0.5327183797E-09    0.6500000094E-07
          0                25           1             2   13     1      -0.1005488081E-04       2   13    1        -0.5985720309E-03      0.1089748266E-02
     PET DIFF ERROR     6    7   -0.6924152431E-09    0.6500000094E-07
     PET DIFF ERROR     6    8   -0.6924152431E-09    0.6500000094E-07
          0                26           2             7    6     1      -0.4919791137E-01       7    6    1        -0.3077299703E+01      0.3077299899E+01
          0                27           2             7    6     1       0.4397888297E-01       7    6    1         0.2776092149E+01      0.2776139256E+01
     PET DIFF ERROR     6    7   -0.8193846224E-09    0.6500000094E-07
     PET DIFF ERROR     6    8   -0.8193846224E-09    0.6500000094E-07
          0                28           2             7    6     1      -0.4413112652E-01       7    6    1        -0.2810724794E+01      0.2810743223E+01
          0                29           2             7    6     1       0.4333741638E-01       7    6    1         0.2785092860E+01      0.2785118042E+01
     PET DIFF ERROR     6    7   -0.1132670057E-08    0.6500000094E-07
     PET DIFF ERROR     6    8   -0.1132670057E-08    0.6500000094E-07
          0                30           2             7    6     1      -0.4227383201E-01       7    6    1        -0.2741223529E+01      0.2741245478E+01
                                                   Max.-Head-Change                         Max.-Flux-Residual
  Residual-Control   Outer-Iter.   Inner-Iter.     Column Row Layer    Maximum-Head-Change  Column Row Layer    Maximum-Flux-Residual          L2-NORM 
          0                31           2             7    6     1       0.4159098199E-01       7    6    1         0.2721199172E+01      0.2721221497E+01
     PET DIFF ERROR     6    7   -0.1572068137E-08    0.6500000094E-07
     PET DIFF ERROR     6    8   -0.1572068137E-08    0.6500000094E-07
          0                32           2             7    6     1      -0.4035128542E-01       7    6    1        -0.2663840861E+01      0.2663861658E+01
          0                33           2             7    6     1       0.3973576076E-01       7    6    1         0.2646741249E+01      0.2646762762E+01
     PET DIFF ERROR     6    7   -0.1838372296E-08    0.6500000094E-07
     PET DIFF ERROR     6    8   -0.1838372296E-08    0.6500000094E-07
          0                34           2             7    6     1      -0.3825826447E-01       7    6    1        -0.2571205850E+01      0.2571225203E+01
          0                35           2             7    6     1       0.3772417168E-01       7    6    1         0.2558004339E+01      0.2558024980E+01
     PET DIFF ERROR     6    7   -0.1023107503E-08    0.6500000094E-07
     PET DIFF ERROR     6    8   -0.1023107503E-08    0.6500000094E-07
          0                36           2             7    6     1      -0.3611845213E-01       7    6    1        -0.2471063453E+01      0.2471081316E+01
          0                37           2             7    6     1       0.3566122514E-01       7    6    1         0.2461568573E+01      0.2461585394E+01
          0                38           2             7    6     1       0.5800336865E-02       7    6    1         0.4001244377E+00      0.4002214861E+00
          0                39           2             7    6     1       0.1969549441E-02       7    6    1         0.1358205466E+00      0.1359043683E+00
          0                40           2             7    6     1       0.6635690744E-03       7    6    1         0.4574491021E-01      0.4579781209E-01
                                                   Max.-Head-Change                         Max.-Flux-Residual
  Residual-Control   Outer-Iter.   Inner-Iter.     Column Row Layer    Maximum-Head-Change  Column Row Layer    Maximum-Flux-Residual          L2-NORM 
          0                41           2             7    6     1       0.2236051294E-03       7    6    1         0.1540993789E-01      0.1543826590E-01
          0                42           1             7    6     1       0.7536173029E-04       7    6    1         0.5192025479E-02      0.5205773407E-02
          0                43           1             7    6     1       0.2540333170E-04       7    6    1         0.1749635889E-02      0.1755885729E-02
          0                44           1             7    6     1       0.8564431988E-05       7    6    1         0.5896994153E-03      0.5924120208E-03

    ------------------------------------------------
       NWT REQUIRED           44 OUTER ITERATIONS 
       AND A TOTAL OF         67 INNER ITERATIONS.
    ------------------------------------------------

 OUTPUT CONTROL FOR STRESS PERIOD    9   TIME STEP   15
    PRINT BUDGET
    PRINT HEAD FOR ALL LAYERS
    SAVE HEAD FOR ALL LAYERS
    SAVE BUDGET
 UBUDSV SAVING "         STORAGE" ON UNIT102 AT TIME STEP    15, STRESS PERIOD    9
 UBUDSV SAVING "   CONSTANT HEAD" ON UNIT102 AT TIME STEP    15, STRESS PERIOD    9
 UBUDSV SAVING "FLOW RIGHT FACE " ON UNIT102 AT TIME STEP    15, STRESS PERIOD    9
 UBUDSV SAVING "FLOW FRONT FACE " ON UNIT102 AT TIME STEP    15, STRESS PERIOD    9

  HEAD DEP BOUNDS   PERIOD    9   STEP    15
 BOUNDARY      1   LAYER   1   ROW    13   COL     1   RATE   -0.273837    
 BOUNDARY      2   LAYER   1   ROW    14   COL     9   RATE    0.273131    



 STREAM LISTING     PERIOD      9   STEP       15

 LAYER ROW COL. STREAM  RCH.  FLOW INTO     FLOW TO   FLOW OUT OF   OVRLND.     DIRECT     STREAM       STREAM     STREAM     STREAM   STREAMBED  STREAMBED
                SEG.NO.  NO.  STRM. RCH.    AQUIFER    STRM. RCH.    RUNOFF     PRECIP       ET          HEAD       DEPTH      WIDTH   CONDCTNC.   GRADIENT

   1    1    1     1     1    3.5000E+01  2.8629E-01   3.4714E+01  0.000E+00  0.000E+00  0.000E+00  1.09434E+03  1.292E+00  1.482E+01  6.670E-02  1.431E+00
   1    2    2     1     2    3.4714E+01  4.4325E-01   3.4270E+01  0.000E+00  0.000E+00  0.000E+00  1.08935E+03  1.289E+00  1.476E+01  1.033E-01  1.430E+00
   1    3    3     1     3    3.4270E+01  3.7790E-01   3.3893E+01  0.000E+00  0.000E+00  0.000E+00  1.08370E+03  1.286E+00  1.470E+01  8.817E-02  1.429E+00
   1    3    4     1     4    3.3893E+01  3.4789E-01   3.3545E+01  0.000E+00  0.000E+00  0.000E+00  1.07869E+03  1.283E+00  1.464E+01  8.123E-02  1.428E+00
   1    4    5     2     1    3.1545E+01  3.4194E-01   3.1203E+01  0.000E+00  0.000E+00  0.000E+00  1.07332E+03  1.384E+00  1.200E+01  7.800E-02  1.461E+00
   1    5    6     2     2    3.1203E+01  2.6255E-01   3.0940E+01  0.000E+00  0.000E+00  0.000E+00  1.06789E+03  1.376E+00  1.200E+01  6.000E-02  1.459E+00
   1    6    6     2     3    3.0940E+01  2.6213E-01   3.0678E+01  0.000E+00  0.000E+00  0.000E+00  1.06316E+03  1.369E+00  1.200E+01  6.000E-02  1.456E+00
   1    7    6     2     4    3.0678E+01  2.6171E-01   3.0416E+01  0.000E+00  0.000E+00  0.000E+00  1.05844E+03  1.362E+00  1.200E+01  6.000E-02  1.454E+00
   1    8    6     2     5    3.0416E+01  2.6129E-01   3.0155E+01  0.000E+00  0.000E+00  0.000E+00  1.05371E+03  1.355E+00  1.200E+01  6.000E-02  1.452E+00
   1    3    5     3     1    2.0000E+00  2.8252E-01   1.7175E+00  0.000E+00  0.000E+00  0.000E+00  1.07555E+03  1.909E+00  9.636E+00  7.227E-02  1.955E+00
   1    3    6     3     2    1.7175E+00  2.4905E-01   1.4684E+00  0.000E+00  0.000E+00  0.000E+00  1.07264E+03  1.727E+00  8.909E+00  6.682E-02  1.864E+00
   1    3    7     3     3    1.4684E+00  1.9718E-01   1.2712E+00  0.000E+00  0.000E+00  0.000E+00  1.06987E+03  1.555E+00  8.218E+00  5.547E-02  1.777E+00
   1    4    8     3     4    1.2712E+00  2.2567E-01   1.0456E+00  0.000E+00  0.000E+00  0.000E+00  1.06682E+03  1.364E+00  7.455E+00  6.709E-02  1.682E+00
   1    5    8     3     5    1.0456E+00  1.5790E-01   8.8768E-01  0.000E+00  0.000E+00  0.000E+00  1.06362E+03  1.164E+00  6.655E+00  4.991E-02  1.582E+00
   1    6    8     3     6    8.8768E-01  5.5980E-02   8.3170E-01  0.000E+00  0.000E+00  0.000E+00  1.06158E+03  1.036E+00  6.145E+00  1.844E-02  1.518E+00
   1    5   10     4     1    1.0000E+01  9.0919E-02   9.9091E+00  0.000E+00  0.000E+00  0.000E+00  1.07836E+03  6.368E-01  1.000E+01  2.500E-02  1.212E+00
   1    5    9     4     2    9.9091E+00  1.8158E-01   9.7275E+00  0.000E+00  0.000E+00  0.000E+00  1.07154E+03  6.315E-01  1.000E+01  5.000E-02  1.211E+00
   1    6    8     4     3    9.7275E+00  1.2689E-01   9.6006E+00  0.000E+00  0.000E+00  0.000E+00  1.06381E+03  6.256E-01  1.000E+01  3.500E-02  1.209E+00
   1    6    8     5     1    1.0432E+01  2.2686E-01   1.0205E+01  0.000E+00  0.000E+00  0.000E+00  1.05868E+03  6.790E-01  1.542E+01  6.166E-02  1.226E+00
   1    7    7     5     2    1.0205E+01  2.7894E-01   9.9265E+00  0.000E+00  0.000E+00  0.000E+00  1.05417E+03  6.732E-01  1.519E+01  7.594E-02  1.224E+00
   1    8    7     5     3    9.9265E+00  1.9221E-01   9.7343E+00  0.000E+00  0.000E+00  0.000E+00  1.04992E+03  6.676E-01  1.497E+01  5.241E-02  1.223E+00
   1    8    6     5     4    9.7343E+00  1.3577E-01   9.5985E+00  0.000E+00  0.000E+00  0.000E+00  1.04691E+03  6.637E-01  1.482E+01  3.706E-02  1.221E+00
   1    9    6     6     1    3.8264E+01  2.7438E-01   3.7990E+01  0.000E+00  0.000E+00  0.000E+00  1.04430E+03  1.573E+00  1.200E+01  6.000E-02  1.524E+00
   1   10    7     6     2    3.7990E+01  2.7397E-01   3.7716E+01  0.000E+00  0.000E+00  0.000E+00  1.03975E+03  1.566E+00  1.200E+01  6.000E-02  1.522E+00
   1   11    7     6     3    3.7716E+01  2.7356E-01   3.7443E+01  0.000E+00  0.000E+00  0.000E+00  1.03520E+03  1.559E+00  1.200E+01  6.000E-02  1.520E+00
   1   12    7     6     4    3.7443E+01  2.7315E-01   3.7169E+01  0.000E+00  0.000E+00  0.000E+00  1.03064E+03  1.553E+00  1.200E+01  6.000E-02  1.518E+00
   1   13    7     6     5    3.7169E+01  1.3635E-02   3.7156E+01  0.000E+00  0.000E+00  0.000E+00  1.02746E+03  1.549E+00  1.200E+01  2.400E-02  1.894E-01
   1   14    9     7     1    1.5000E+02  1.1503E+00   1.4885E+02  0.000E+00  0.000E+00  0.000E+00  1.03987E+03  2.288E+00  5.530E+01  5.593E-01  6.855E-01
   1   13    8     7     2    1.4885E+02  1.6253E+00   1.4722E+02  0.000E+00  0.000E+00  0.000E+00  1.03478E+03  2.281E+00  5.526E+01  6.149E-01  8.811E-01
   1   13    7     7     3    1.4722E+02  1.5649E+00   1.4566E+02  0.000E+00  0.000E+00  0.000E+00  1.02969E+03  2.272E+00  5.523E+01  5.585E-01  9.339E-01
   1   13    6     8     1    1.8282E+02  1.0652E+00   1.8175E+02  0.000E+00  0.000E+00  0.000E+00  1.02491E+03  3.030E+00  4.394E+01  4.478E-01  7.930E-01
   1   13    5     8     2    1.8175E+02  2.9668E-01   1.8145E+02  0.000E+00  0.000E+00  0.000E+00  1.01865E+03  3.026E+00  4.388E+01  4.472E-01  2.212E-01
   1   13    4     8     3    1.8145E+02 -1.7542E+00   1.8321E+02  0.000E+00  0.000E+00  0.000E+00  1.01241E+03  3.031E+00  4.395E+01  4.478E+00 -1.306E-01
   1   13    3     8     4    1.8321E+02 -2.8121E+00   1.8602E+02  0.000E+00  0.000E+00  0.000E+00  1.00617E+03  3.045E+00  4.415E+01  4.499E+00 -2.083E-01
   1   13    2     8     5    1.8602E+02 -1.2745E+00   1.8729E+02  0.000E+00  0.000E+00  0.000E+00  9.99932E+02  3.058E+00  4.433E+01  4.518E+00 -9.403E-02
   1   13    1     8     6    1.8729E+02 -7.2678E-01   1.8802E+02  0.000E+00  0.000E+00  0.000E+00  9.94939E+02  3.064E+00  4.442E+01  2.716E+00 -8.919E-02
   1    6    8     9     1    1.4892E+00  0.0000E+00   1.4892E+00  0.000E+00  0.000E+00  0.000E+00  1.07867E+03  1.719E-01  4.000E+00  0.000E+00  1.057E+00



 UBDSV3 SAVING "     NETRECHARGE" ON UNIT 100 AT TIME STEP    15, STRESS PERIOD   9
 UBDSV3 SAVING "    NETDISCHARGE" ON UNIT 101 AT TIME STEP    15, STRESS PERIOD   9
 UBDSV3 SAVING "           GW ET" ON UNIT  61 AT TIME STEP    15, STRESS PERIOD   9
 UBDSV3 SAVING "    UZF RECHARGE" ON UNIT  61 AT TIME STEP    15, STRESS PERIOD   9
 UBDSV3 SAVING " SURFACE LEAKAGE" ON UNIT  61 AT TIME STEP    15, STRESS PERIOD   9
 UBDSV3 SAVING "       HORT+DUNN" ON UNIT  61 AT TIME STEP    15, STRESS PERIOD   9
 UBDSV3 SAVING "  STORAGE CHANGE" ON UNIT  61 AT TIME STEP    15, STRESS PERIOD   9


UNSATURATED ZONE PACKAGE VOLUMETRIC BUDGET FOR  TIME STEP    15 STRESS PERIOD    9
  ------------------------------------------------------------------------------



     CUMULATIVE VOLUMES      L**3       RATES FOR THIS TIME STEP      L**3/T
     ------------------                 ------------------------

           IN:                                      IN:
           ---                                      ---
        INFILTRATION =    11584072.4626          INFILTRATION =           1.4892

          OUT:                                     OUT:
          ----                                     ----
              UZF ET =   538605247.5482                UZF ET =           3.2500
        UZF RECHARGE =   504794142.1027          UZF RECHARGE =          22.6795

            IN - OUT = -1031815317.1882              IN - OUT =         -24.4404

          STORAGE:                                 STORAGE:
          --------                                 --------
      STORAGE CHANGE = -1031789526.3144        STORAGE CHANGE =         -24.4404

 PERCENT DISCREPANCY IS DIFFERENCE BETWEEN IN-OUT MINUS CHANGE IN STORAGE
 DIVIDED BY THE AVERAGE OF IN AND OUT TIMES 100

 PERCENT DISCREPANCY =          -0.00     PERCENT DISCREPANCY =           0.00






1
              HEAD IN LAYER   1 AT END OF TIME STEP    15 IN STRESS PERIOD    9
  -----------------------------------------------------------------------------

           1       2       3       4       5       6       7       8       9      10
 ...................................................................................
   1  1035.73 1033.95 6999.00 6999.00 6999.00 6999.00 6999.00 6999.00 6999.00 6999.00
   2  1035.09 1033.77 1032.68 6999.00 6999.00 1034.33 1034.58 1034.68 6999.00 6999.00
   3  6999.00 1032.81 1032.34 1031.98 1032.41 1033.11 1033.87 1034.12 6999.00 6999.00
   4  1032.06 1031.99 1031.56 1031.06 1031.05 1031.08 1031.87 1033.26 1033.27 6999.00
   5  1031.58 1031.11 1030.60 1030.17 1030.23 1030.47 1030.66 1031.24 1032.04 1032.60
   6  1030.96 1030.27 1029.68 1029.30 1029.39 1029.79 1030.11 1030.74 1031.80 1033.24
   7  1030.41 1029.21 1028.61 1028.28 1028.44 1028.92 1029.40 1030.03 1031.47 6999.00
   8  6999.00 1027.67 1027.27 1027.05 1027.26 1027.83 1028.31 1029.54 1030.83 6999.00
   9  6999.00 1025.36 1025.33 1025.39 1025.76 1026.47 1027.05 1028.41 1030.04 6999.00
  10  6999.00 1022.24 1022.64 1023.32 1024.09 1025.15 1026.16 1027.77 1029.80 1030.48
  11  6999.00 1017.32 1018.30 1020.60 1022.24 1024.03 1025.69 1027.97 1030.56 6999.00
  12  1003.26 1009.05 1012.80 1016.79 1020.05 1023.11 1025.71 1029.46 1032.89 6999.00
  13   995.21 1000.21 1006.79 1012.80 1017.99 1022.53 1026.89 1032.14 1035.28 6999.00
  14  6999.00 1007.40 1010.17 1014.78 1019.52 1023.97 1028.75 1034.02 1037.81 6999.00
  15  6999.00 6999.00 1014.42 1017.13 1020.60 1023.55 6999.00 6999.00 6999.00 6999.00

 HEAD WILL BE SAVED ON UNIT   62 AT END OF TIME STEP   15, STRESS PERIOD    9
1
  VOLUMETRIC BUDGET FOR ENTIRE MODEL AT END OF TIME STEP   15, STRESS PERIOD   9
  ------------------------------------------------------------------------------

     CUMULATIVE VOLUMES      L**3       RATES FOR THIS TIME STEP      L**3/T
     ------------------                 ------------------------

           IN:                                      IN:
           ---                                      ---
             STORAGE     =    28984664.0000               STORAGE     =           2.5694
       CONSTANT HEAD     =           0.0000         CONSTANT HEAD     =           0.0000
               WELLS     =           0.0000                 WELLS     =           0.0000
     HEAD DEP BOUNDS     =     5477861.5000       HEAD DEP BOUNDS     =           0.2731
      STREAM LEAKAGE     =   232195056.0000        STREAM LEAKAGE     =          12.0575
        UZF RECHARGE     =   504794144.0000          UZF RECHARGE     =          22.6795
               GW ET     =           0.0000                 GW ET     =           0.0000
     SURFACE LEAKAGE     =           0.0000       SURFACE LEAKAGE     =           0.0000
    SUPPLEMENTARY WELLS  =           0.0000      SUPPLEMENTARY WELLS  =           0.0000

                TOTAL IN =   771451712.0000                  TOTAL IN =          37.5795

          OUT:                                     OUT:
          ----                                     ----
             STORAGE     =   499497440.0000               STORAGE     =          19.5647
       CONSTANT HEAD     =           0.0000         CONSTANT HEAD     =           0.0000
               WELLS     =           0.0000                 WELLS     =           0.0000
     HEAD DEP BOUNDS     =     5742168.0000       HEAD DEP BOUNDS     =           0.2738
      STREAM LEAKAGE     =   203616400.0000        STREAM LEAKAGE     =           6.5675
        UZF RECHARGE     =           0.0000          UZF RECHARGE     =           0.0000
               GW ET     =    62477268.0000                 GW ET     =          11.1733
     SURFACE LEAKAGE     =           0.0000       SURFACE LEAKAGE     =           0.0000
    SUPPLEMENTARY WELLS  =       33514.8555      SUPPLEMENTARY WELLS  =           0.0000

               TOTAL OUT =   771366784.0000                 TOTAL OUT =          37.5793

                IN - OUT =       84928.0000                  IN - OUT =       2.4414E-04

     PERCENT DISCREPANCY =           0.01         PERCENT DISCREPANCY =           0.00






         TIME SUMMARY AT END OF TIME STEP   15 IN STRESS PERIOD    9
                    SECONDS     MINUTES      HOURS       DAYS        YEARS
                    -----------------------------------------------------------
   TIME STEP LENGTH  87600.      1460.0      24.333      1.0139     2.77588E-03
 STRESS PERIOD TIME 1.31400E+06  21900.      365.00      15.208     4.16381E-02
         TOTAL TIME 1.97964E+07 3.29940E+05  5499.0      229.12     0.62731    
1
 
 SOLVING FOR HEAD 
                                                   Max.-Head-Change                         Max.-Flux-Residual
  Residual-Control   Outer-Iter.   Inner-Iter.     Column Row Layer    Maximum-Head-Change  Column Row Layer    Maximum-Flux-Residual          L2-NORM 
          0                 1           2             6   13     1      -0.9112457691E-02       6   13    1        -0.4858676155E+00      0.1628307909E+01
          0                 2           2             1    2     1       0.2310994232E-02       4   13    1         0.1165787700E+00      0.4408085631E+00
          0                 3           2             7    6     1      -0.6121463176E-01       7    6    1        -0.3373053366E+01      0.3376098395E+01
          0                 4           2             7    6     1       0.6252465024E-01       7    6    1         0.3476982187E+01      0.3478870695E+01
     PET DIFF ERROR     6    7   -0.2619850088E-08    0.6500000094E-07
     PET DIFF ERROR     6    8   -0.2619850088E-08    0.6500000094E-07
          0                 5           2             7    6     1      -0.2869549558E-01       7    6    1        -0.1610606669E+01      0.1610961668E+01
          0                 6           2             7    6     1       0.2552129076E-01       7    6    1         0.1445304144E+01      0.1445384823E+01
          0                 7           2             7    6     1       0.1143569852E-02       7    6    1         0.6456874336E-01      0.6524934512E-01
          0                 8           2             7    6     1       0.6814523392E-03       7    6    1         0.3854119956E-01      0.3868990687E-01
          0                 9           1             7    6     1       0.1048172265E-03       7    6    1         0.5920570720E-02      0.6052423235E-02
          0                10           1             7    6     1       0.4605145141E-04       7    6    1         0.2603871377E-02      0.2655940786E-02
          0                11           1             7    6     1       0.8526629590E-05       7    6    1         0.4816907872E-03      0.5321749173E-03

    ------------------------------------------------
       NWT REQUIRED           11 OUTER ITERATIONS 
       AND A TOTAL OF         19 INNER ITERATIONS.
    ------------------------------------------------

 NO OUTPUT CONTROL FOR STRESS PERIOD    9   TIME STEP   16
 
 SOLVING FOR HEAD 
                                                   Max.-Head-Change                         Max.-Flux-Residual
  Residual-Control   Outer-Iter.   Inner-Iter.     Column Row Layer    Maximum-Head-Change  Column Row Layer    Maximum-Flux-Residual          L2-NORM 
          0                 1           2             6   13     1      -0.8901016799E-02       6   13    1        -0.4746373419E+00      0.1615823172E+01
          0                 2           2             2   13     1       0.2335762328E-02       4   13    1         0.1342601793E+00      0.4566220573E+00
          0                 3           2             7    6     1      -0.7244464235E-01       7    6    1        -0.3991804028E+01      0.3994383959E+01
          0                 4           2             7    6     1       0.7465257055E-01       7    6    1         0.4151412778E+01      0.4157205847E+01
          0                 5           2             7    6     1      -0.1704139345E-02       7    6    1        -0.9615572657E-01      0.1036276164E+00
          0                 6           2             7    6     1      -0.3113751624E-03       7    6    1        -0.1755273961E-01      0.2170047951E-01
          0                 7           1             7    6     1      -0.5696497170E-04       7    6    1        -0.3208329437E-02      0.6380451219E-02
          0                 8           1             1    2     1       0.1889727844E-04       7    6    1        -0.5871508040E-03      0.2529678129E-02
          0                 9           1             1    2     1       0.8482586316E-05       1    2    1         0.2205250370E-03      0.1106749992E-02

    ------------------------------------------------
       NWT REQUIRED            9 OUTER ITERATIONS 
       AND A TOTAL OF         15 INNER ITERATIONS.
    ------------------------------------------------

 NO OUTPUT CONTROL FOR STRESS PERIOD    9   TIME STEP   17
 
 SOLVING FOR HEAD 
                                                   Max.-Head-Change                         Max.-Flux-Residual
  Residual-Control   Outer-Iter.   Inner-Iter.     Column Row Layer    Maximum-Head-Change  Column Row Layer    Maximum-Flux-Residual          L2-NORM 
          0                 1           2             6   13     1      -0.8688898633E-02       6   13    1        -0.4633472582E+00      0.1603210121E+01
          0                 2           2             2   13     1       0.2318962398E-02       4   13    1         0.1333838400E+00      0.4549868737E+00
          0                 3           2             7    6     1      -0.7249787432E-01       7    6    1        -0.3994739551E+01      0.3997308918E+01
          0                 4           2             7    6     1       0.7471000520E-01       7    6    1         0.4154608914E+01      0.4155160759E+01
     PET DIFF ERROR     6    7   -0.3424090540E-08    0.6500000094E-07
     PET DIFF ERROR     6    8   -0.3424090540E-08    0.6500000094E-07
          0                 5           2             7    6     1      -0.6681218589E-01       7    6    1        -0.3749498449E+01      0.3749662408E+01
          0                 6           2             7    6     1       0.6498548373E-01       7    6    1         0.3680257277E+01      0.3680335674E+01
     PET DIFF ERROR     6    7   -0.6879104876E-09    0.6500000094E-07
     PET DIFF ERROR     6    8   -0.6879104876E-09    0.6500000094E-07
          0                 7           2             7    6     1      -0.6161297452E-01       7    6    1        -0.3521203489E+01      0.3521258590E+01
          0                 8           2             7    6     1       0.6030222747E-01       7    6    1         0.3477706611E+01      0.3477752505E+01
          0                 9           2             7    6     1       0.5671668837E-03       7    6    1         0.3228307653E-01      0.3665245896E-01
          0                10           1             7    6     1       0.4566344070E-04       7    6    1         0.2540846784E-02      0.4657298555E-02
                                                   Max.-Head-Change                         Max.-Flux-Residual
  Residual-Control   Outer-Iter.   Inner-Iter.     Column Row Layer    Maximum-Head-Change  Column Row Layer    Maximum-Flux-Residual          L2-NORM 
          0                11           1             7    6     1      -0.9105209047E-04       7    6    1        -0.5317808842E-02      0.5476586267E-02
          0                12           1             7    6     1       0.9460704681E-04       7    6    1         0.5552006786E-02      0.5708095536E-02
          0                13           1             7    6     1      -0.3983434405E-04       7    6    1        -0.2361806510E-02      0.2549432641E-02
          0                14           1             7    6     1       0.8759925022E-04       7    6    1         0.5237866153E-02      0.5363256246E-02
          0                15           1             7    6     1      -0.2674926250E-04       7    6    1        -0.1614627956E-02      0.1822549716E-02
          0                16           1             7    6     1      -0.9677193467E-04       7    6    1        -0.5838783396E-02      0.5923898751E-02
          0                17           1             7    6     1       0.4808611711E-04       7    6    1         0.2928413529E-02      0.3198333711E-02
          0                18           1             7    6     1      -0.6566033646E-04       7    6    1        -0.4034095859E-02      0.4168614639E-02
          0                19           1             7    6     1       0.3705850198E-04       7    6    1         0.2297798007E-02      0.2643631833E-02
          0                20           1             7    6     1       0.7455247599E-04       7    6    1         0.4621462519E-02      0.4758074365E-02
                                                   Max.-Head-Change                         Max.-Flux-Residual
  Residual-Control   Outer-Iter.   Inner-Iter.     Column Row Layer    Maximum-Head-Change  Column Row Layer    Maximum-Flux-Residual          L2-NORM 
          0                21           1             7    6     1      -0.3990929574E-04       7    6    1        -0.2497042407E-02      0.2657807777E-02
          0                22           1             7    6     1       0.2659675852E-04       7    6    1         0.1678891278E-02      0.2017208786E-02
          0                23           1             7    6     1      -0.6552922326E-04       7    6    1        -0.4173592788E-02      0.4288777574E-02
          0                24           1             2   13     1      -0.1130043014E-04       4   13    1        -0.6911331320E-03      0.1249893233E-02
          0                25           1             7    6     1       0.2205084776E-04       7    6    1         0.1417168455E-02      0.1843555922E-02
          0                26           1             7    6     1       0.2638866984E-04       7    6    1         0.1695636082E-02      0.2021686757E-02
          0                27           1             7    6     1      -0.7628110868E-04       7    6    1        -0.4946317381E-02      0.5053852694E-02
     PET DIFF ERROR     6    7   -0.5153370256E-09    0.6500000094E-07
     PET DIFF ERROR     6    8   -0.5153370256E-09    0.6500000094E-07
          0                28           1             7    6     1       0.4824614636E-04       7    6    1         0.3156962727E-02      0.3423889981E-02
     PET DIFF ERROR     6    7   -0.6464677988E-09    0.6500000094E-07
     PET DIFF ERROR     6    8   -0.6464677988E-09    0.6500000094E-07
          0                29           1             7    6     1      -0.6653803364E-04       7    6    1        -0.4392531977E-02      0.4522024675E-02
     PET DIFF ERROR     6    7   -0.9063782793E-09    0.6500000094E-07
     PET DIFF ERROR     6    8   -0.9063782793E-09    0.6500000094E-07
          0                30           2             7    6     1      -0.4560247104E-01       7    6    1        -0.3010276776E+01      0.3010277084E+01
                                                   Max.-Head-Change                         Max.-Flux-Residual
  Residual-Control   Outer-Iter.   Inner-Iter.     Column Row Layer    Maximum-Head-Change  Column Row Layer    Maximum-Flux-Residual          L2-NORM 
          0                31           2             7    6     1       0.3849891678E-01       7    6    1         0.2564517034E+01      0.2564557441E+01
     PET DIFF ERROR     6    7   -0.1126121421E-08    0.6500000094E-07
     PET DIFF ERROR     6    8   -0.1126121421E-08    0.6500000094E-07
          0                32           2             7    6     1      -0.3940978046E-01       7    6    1        -0.2648589360E+01      0.2648601078E+01
          0                33           2             7    6     1       0.3862391560E-01       7    6    1         0.2619072625E+01      0.2619092755E+01
     PET DIFF ERROR     6    7   -0.1656343890E-08    0.6500000094E-07
     PET DIFF ERROR     6    8   -0.1656343890E-08    0.6500000094E-07
          0                34           2             7    6     1      -0.3751750826E-01       7    6    1        -0.2566813997E+01      0.2566829946E+01
          0                35           2             7    6     1       0.3697944247E-01       7    6    1         0.2552604684E+01      0.2552622829E+01
     PET DIFF ERROR     6    7   -0.2262301883E-08    0.6500000094E-07
     PET DIFF ERROR     6    8   -0.2262301883E-08    0.6500000094E-07
          0                36           2             7    6     1      -0.3552596080E-01       7    6    1        -0.2474187611E+01      0.2474203074E+01
          0                37           2             7    6     1       0.3508587421E-01       7    6    1         0.2465309995E+01      0.2465328940E+01
     PET DIFF ERROR     6    7   -0.1692995185E-08    0.6500000094E-07
     PET DIFF ERROR     6    8   -0.1692995185E-08    0.6500000094E-07
          0                38           2             7    6     1      -0.3329409584E-01       7    6    1        -0.2360271308E+01      0.2360285755E+01
          0                39           2             7    6     1       0.3296488762E-01       7    6    1         0.2357702131E+01      0.2357717439E+01
          0                40           2             7    6     1       0.6210180497E-02       7    6    1         0.4439358490E+00      0.4440028866E+00
                                                   Max.-Head-Change                         Max.-Flux-Residual
  Residual-Control   Outer-Iter.   Inner-Iter.     Column Row Layer    Maximum-Head-Change  Column Row Layer    Maximum-Flux-Residual          L2-NORM 
          0                41           2             7    6     1       0.2257604135E-02       7    6    1         0.1613403245E+00      0.1614052270E+00
          0                42           2             7    6     1       0.8127834901E-03       7    6    1         0.5807003020E-01      0.5811431138E-01
          0                43           2             7    6     1       0.2926561937E-03       7    6    1         0.2090368224E-01      0.2092897543E-01
          0                44           2             7    6     1       0.1053884068E-03       7    6    1         0.7525777915E-02      0.7538793973E-02
          0                45           1             7    6     1       0.3795569757E-04       7    6    1         0.2709781797E-02      0.2716036838E-02
          0                46           1             7    6     1       0.1367121415E-04       7    6    1         0.9758166505E-03      0.9786812002E-03
          0                47           1             7    6     1       0.4924705607E-05       7    6    1         0.3514389882E-03      0.3527051855E-03

    ------------------------------------------------
       NWT REQUIRED           47 OUTER ITERATIONS 
       AND A TOTAL OF         71 INNER ITERATIONS.
    ------------------------------------------------

 NO OUTPUT CONTROL FOR STRESS PERIOD    9   TIME STEP   18
 
 SOLVING FOR HEAD 
                                                   Max.-Head-Change                         Max.-Flux-Residual
  Residual-Control   Outer-Iter.   Inner-Iter.     Column Row Layer    Maximum-Head-Change  Column Row Layer    Maximum-Flux-Residual          L2-NORM 
          0                 1           2             6   13     1      -0.8491844001E-02       6   13    1        -0.4528704219E+00      0.1593435706E+01
          0                 2           2             1    2     1       0.2303664869E-02       4   13    1         0.1213872656E+00      0.4425979583E+00
          0                 3           2             7    6     1      -0.6527872510E-01       7    6    1        -0.3596982704E+01      0.3599816082E+01
          0                 4           2             7    6     1       0.6691345866E-01       7    6    1         0.3721048117E+01      0.3723594299E+01
          0                 5           2             7    6     1      -0.1236155824E-02       7    6    1        -0.6984154744E-01      0.7808902352E-01
          0                 6           2             7    6     1      -0.2254437929E-03       7    6    1        -0.1272513291E-01      0.1792854387E-01
          0                 7           1             1    2     1       0.4200957875E-04       7    6    1        -0.2321593727E-02      0.5967413751E-02
          0                 8           1             1    2     1       0.1885722391E-04       1    2    1         0.4902382843E-03      0.2489835765E-02
          0                 9           1             1    2     1       0.8464595328E-05       1    2    1         0.2200575649E-03      0.1101042687E-02

    ------------------------------------------------
       NWT REQUIRED            9 OUTER ITERATIONS 
       AND A TOTAL OF         15 INNER ITERATIONS.
    ------------------------------------------------

 NO OUTPUT CONTROL FOR STRESS PERIOD    9   TIME STEP   19
 
 SOLVING FOR HEAD 
                                                   Max.-Head-Change                         Max.-Flux-Residual
  Residual-Control   Outer-Iter.   Inner-Iter.     Column Row Layer    Maximum-Head-Change  Column Row Layer    Maximum-Flux-Residual          L2-NORM 
          0                 1           2             6   13     1      -0.8293527891E-02       6   13    1        -0.4423243466E+00      0.1583139175E+01
          0                 2           2             1    2     1       0.2301272370E-02       4   13    1         0.1326649513E+00      0.4525382030E+00
          0                 3           2             7    6     1      -0.7249771840E-01       7    6    1        -0.3994736053E+01      0.3997289154E+01
          0                 4           2             7    6     1       0.7470946746E-01       7    6    1         0.4154583462E+01      0.4159261746E+01
          0                 5           2             7    6     1      -0.1707152814E-02       7    6    1        -0.9632544728E-01      0.1034882965E+00
          0                 6           2             7    6     1      -0.3119272577E-03       7    6    1        -0.1758380526E-01      0.2168831932E-01
          0                 7           1             7    6     1      -0.5706624695E-04       7    6    1        -0.3214022928E-02      0.6361984900E-02
          0                 8           1             1    2     1       0.1883759594E-04       7    6    1        -0.5881955740E-03      0.2519222167E-02
          0                 9           1             1    2     1       0.8455779414E-05       1    2    1         0.2198284923E-03      0.1101880264E-02

    ------------------------------------------------
       NWT REQUIRED            9 OUTER ITERATIONS 
       AND A TOTAL OF         15 INNER ITERATIONS.
    ------------------------------------------------

 NO OUTPUT CONTROL FOR STRESS PERIOD    9   TIME STEP   20
 
 SOLVING FOR HEAD 
                                                   Max.-Head-Change                         Max.-Flux-Residual
  Residual-Control   Outer-Iter.   Inner-Iter.     Column Row Layer    Maximum-Head-Change  Column Row Layer    Maximum-Flux-Residual          L2-NORM 
          0                 1           2             6   13     1      -0.8096596439E-02       6   13    1        -0.4318421798E+00      0.1572821495E+01
          0                 2           2             1    2     1       0.2298874466E-02       4   13    1         0.1319607153E+00      0.4511021289E+00
          0                 3           2             7    6     1      -0.7249763380E-01       7    6    1        -0.3994733930E+01      0.3997278810E+01
          0                 4           2             7    6     1       0.7470911381E-01       7    6    1         0.4154566023E+01      0.4155232236E+01
          0                 5           2             7    6     1      -0.2057602761E-02       7    6    1        -0.1159899973E+00      0.1211707970E+00
          0                 6           2             7    6     1      -0.4810177187E-03       7    6    1        -0.2706886137E-01      0.2988731870E-01
          0                 7           1             1    2     1       0.4192208190E-04       7    6    1        -0.1673585574E-02      0.5869069570E-02
          0                 8           1             7    6     1      -0.6930131441E-04       7    6    1        -0.3890129200E-02      0.4727064201E-02
          0                 9           1             7    6     1       0.4527576804E-04       7    6    1         0.2563957914E-02      0.3079748534E-02
          0                10           1             7    6     1      -0.4559543651E-04       7    6    1        -0.2605725608E-02      0.2880198344E-02
                                                   Max.-Head-Change                         Max.-Flux-Residual
  Residual-Control   Outer-Iter.   Inner-Iter.     Column Row Layer    Maximum-Head-Change  Column Row Layer    Maximum-Flux-Residual          L2-NORM 
          0                11           1             7    6     1       0.5115833824E-04       7    6    1         0.2950264637E-02      0.3230525074E-02
          0                12           1             7    6     1      -0.1507094123E-04       7    6    1        -0.8773352602E-03      0.1413517221E-02
          0                13           1             7    6     1      -0.1426571888E-04       7    6    1        -0.8300543170E-03      0.1453886313E-02
          0                14           1             7    6     1       0.3458359598E-04       7    6    1         0.2030840966E-02      0.2370929414E-02
          0                15           1             7    6     1       0.1085289686E-04       7    6    1         0.6369995183E-03      0.1274229516E-02
          0                16           1             7    6     1       0.5103004022E-04       7    6    1         0.2996217884E-02      0.3191774377E-02
          0                17           1             7    6     1      -0.6572632335E-04       7    6    1        -0.3894903510E-02      0.4008963802E-02
          0                18           1             2   13     1      -0.1135352608E-04       4   13    1        -0.6697852868E-03      0.1220540339E-02
     PET DIFF ERROR     6    7   -0.5170878755E-09    0.6500000094E-07
     PET DIFF ERROR     6    8   -0.5170878755E-09    0.6500000094E-07
          0                19           1             7    6     1       0.2866967612E-04       7    6    1         0.1714250384E-02      0.2050915150E-02
     PET DIFF ERROR     6    7   -0.4786919456E-09    0.6500000094E-07
     PET DIFF ERROR     6    8   -0.4786919456E-09    0.6500000094E-07
          0                20           1             7    6     1       0.3280694383E-04       7    6    1         0.1961303028E-02      0.2220931983E-02
     PET DIFF ERROR     6    7   -0.6044494364E-09    0.6500000094E-07
     PET DIFF ERROR     6    8   -0.6044494363E-09    0.6500000094E-07
                                                   Max.-Head-Change                         Max.-Flux-Residual
  Residual-Control   Outer-Iter.   Inner-Iter.     Column Row Layer    Maximum-Head-Change  Column Row Layer    Maximum-Flux-Residual          L2-NORM 
          0                21           1             7    6     1      -0.7716777391E-04       7    6    1        -0.4656119717E-02      0.4755021956E-02
     PET DIFF ERROR     6    7   -0.8401683237E-09    0.6500000094E-07
     PET DIFF ERROR     6    8   -0.8401683236E-09    0.6500000094E-07
          0                22           2             7    6     1      -0.4789318175E-01       7    6    1        -0.2889525331E+01      0.2889525597E+01
          0                23           2             7    6     1       0.4434528853E-01       7    6    1         0.2700144931E+01      0.2700196859E+01
     PET DIFF ERROR     6    7   -0.1043960636E-08    0.6500000094E-07
     PET DIFF ERROR     6    8   -0.1043960636E-08    0.6500000094E-07
          0                24           2             7    6     1      -0.4383936520E-01       7    6    1        -0.2693431313E+01      0.2693454913E+01
          0                25           2             7    6     1       0.4306167908E-01       7    6    1         0.2669629041E+01      0.2669658593E+01
     PET DIFF ERROR     6    7   -0.1597961925E-08    0.6500000094E-07
     PET DIFF ERROR     6    8   -0.1597961925E-08    0.6500000094E-07
          0                26           2             7    6     1      -0.4180862599E-01       7    6    1        -0.2615406622E+01      0.2615432941E+01
          0                27           2             7    6     1       0.4110096673E-01       7    6    1         0.2594357906E+01      0.2594385184E+01
     PET DIFF ERROR     6    7   -0.2640461973E-08    0.6500000094E-07
     PET DIFF ERROR     6    8   -0.2640461973E-08    0.6500000094E-07
          0                28           2             7    6     1      -0.3952560388E-01       7    6    1        -0.2517464756E+01      0.2517489486E+01
          0                29           2             7    6     1       0.3889685983E-01       7    6    1         0.2499739860E+01      0.2499769123E+01
     PET DIFF ERROR     6    7   -0.3657123755E-08    0.6500000094E-07
     PET DIFF ERROR     6    8   -0.3657123755E-08    0.6500000094E-07
          0                30           2             7    6     1      -0.3668056508E-01       7    6    1        -0.2378570812E+01      0.2378593861E+01
                                                   Max.-Head-Change                         Max.-Flux-Residual
  Residual-Control   Outer-Iter.   Inner-Iter.     Column Row Layer    Maximum-Head-Change  Column Row Layer    Maximum-Flux-Residual          L2-NORM 
          0                31           2             7    6     1       0.3617136390E-01       7    6    1         0.2366632289E+01      0.2366666285E+01
     PET DIFF ERROR     6    7   -0.1067294184E-08    0.6500000094E-07
     PET DIFF ERROR     6    8   -0.1067294184E-08    0.6500000094E-07
          0                32           2             7    6     1      -0.3332801376E-01       7    6    1        -0.2200229716E+01      0.2200250967E+01
          0                33           2             7    6     1       0.3296643512E-01       7    6    1         0.2195869124E+01      0.2195887232E+01
          0                34           2             7    6     1       0.4838551813E-02       7    6    1         0.3220457906E+00      0.3221650109E+00
          0                35           2             7    6     1       0.1513509593E-02       7    6    1         0.1006944021E+00      0.1007918398E+00
          0                36           2             7    6     1       0.4735511375E-03       7    6    1         0.3149229383E-01      0.3155053995E-01
          0                37           2             7    6     1       0.1482042300E-03       7    6    1         0.9851782145E-02      0.9881512287E-02
          0                38           1             7    6     1       0.4639450221E-04       7    6    1         0.3082741617E-02      0.3096534118E-02
          0                39           1             7    6     1       0.1452729807E-04       7    6    1         0.9648760706E-03      0.9708785969E-03
          0                40           1             7    6     1       0.4550046243E-05       7    6    1         0.3020774300E-03      0.3045734457E-03

    ------------------------------------------------
       NWT REQUIRED           40 OUTER ITERATIONS 
       AND A TOTAL OF         62 INNER ITERATIONS.
    ------------------------------------------------

 NO OUTPUT CONTROL FOR STRESS PERIOD    9   TIME STEP   21
 
 SOLVING FOR HEAD 
     PET DIFF ERROR     6    7   -0.4065377702E-08    0.6500000094E-07
     PET DIFF ERROR     6    8   -0.4065377702E-08    0.6500000094E-07
                                                   Max.-Head-Change                         Max.-Flux-Residual
  Residual-Control   Outer-Iter.   Inner-Iter.     Column Row Layer    Maximum-Head-Change  Column Row Layer    Maximum-Flux-Residual          L2-NORM 
          0                 1           2             6   13     1      -0.7912107122E-02       6   13    1        -0.4220149288E+00      0.1564539354E+01
          0                 2           2             1    2     1       0.2296485180E-02       4   13    1         0.1266736633E+00      0.4451302503E+00
          0                 3           2             7    6     1      -0.6934924905E-01       7    6    1        -0.3821267035E+01      0.3823914692E+01
          0                 4           2             7    6     1       0.7130863783E-01       7    6    1         0.3965468857E+01      0.3969747080E+01
          0                 5           2             7    6     1      -0.1501043372E-02       7    6    1        -0.8473626354E-01      0.9238725845E-01
          0                 6           2             7    6     1      -0.2740808139E-03       7    6    1        -0.1545762021E-01      0.1996001214E-01
          0                 7           1             7    6     1      -0.5010864621E-04       7    6    1        -0.2823479544E-02      0.6158940234E-02
          0                 8           1             1    2     1       0.1879832151E-04       7    6    1        -0.5163765638E-03      0.2496369514E-02
          0                 9           1             1    2     1       0.8438138832E-05       1    2    1         0.2193701180E-03      0.1097450098E-02

    ------------------------------------------------
       NWT REQUIRED            9 OUTER ITERATIONS 
       AND A TOTAL OF         15 INNER ITERATIONS.
    ------------------------------------------------

 NO OUTPUT CONTROL FOR STRESS PERIOD    9   TIME STEP   22
 
 SOLVING FOR HEAD 
                                                   Max.-Head-Change                         Max.-Flux-Residual
  Residual-Control   Outer-Iter.   Inner-Iter.     Column Row Layer    Maximum-Head-Change  Column Row Layer    Maximum-Flux-Residual          L2-NORM 
          0                 1           2             6   13     1      -0.7724515461E-02       6   13    1        -0.4120197723E+00      0.1555577910E+01
          0                 2           2             1    2     1       0.2294118229E-02       4   13    1         0.1312246470E+00      0.4488157527E+00
          0                 3           2             7    6     1      -0.7249744576E-01       7    6    1        -0.3994728632E+01      0.3997257909E+01
          0                 4           2             7    6     1       0.7470818463E-01       7    6    1         0.4154518808E+01      0.4155392374E+01
     PET DIFF ERROR     6    7   -0.8076440226E-09    0.6500000094E-07
     PET DIFF ERROR     6    8   -0.8076440227E-09    0.6500000094E-07
          0                 5           2             7    6     1      -0.5401895744E-01       7    6    1        -0.3031653301E+01      0.3031856934E+01
          0                 6           2             7    6     1       0.5141899070E-01       7    6    1         0.2911962149E+01      0.2912025400E+01
     PET DIFF ERROR     6    7   -0.9614617935E-09    0.6500000094E-07
     PET DIFF ERROR     6    8   -0.9614617936E-09    0.6500000094E-07
          0                 7           2             7    6     1      -0.5038826593E-01       7    6    1        -0.2879704842E+01      0.2879749331E+01
          0                 8           2             7    6     1       0.4941891972E-01       7    6    1         0.2850065680E+01      0.2850104394E+01
     PET DIFF ERROR     6    7   -0.1087061397E-08    0.6500000094E-07
     PET DIFF ERROR     6    8   -0.1087061397E-08    0.6500000094E-07
          0                 9           2             7    6     1      -0.4804747248E-01       7    6    1        -0.2796268087E+01      0.2796304272E+01
          0                10           2             7    6     1       0.4712741209E-01       7    6    1         0.2767689924E+01      0.2767724689E+01
     PET DIFF ERROR     6    7   -0.1035554671E-08    0.6500000094E-07
     PET DIFF ERROR     6    8   -0.1035554672E-08    0.6500000094E-07
                                                   Max.-Head-Change                         Max.-Flux-Residual
  Residual-Control   Outer-Iter.   Inner-Iter.     Column Row Layer    Maximum-Head-Change  Column Row Layer    Maximum-Flux-Residual          L2-NORM 
          0                11           2             7    6     1      -0.4572681623E-01       7    6    1        -0.2709902892E+01      0.2709935861E+01
          0                12           2             7    6     1       0.4487468888E-01       7    6    1         0.2683564613E+01      0.2683596287E+01
     PET DIFF ERROR     6    7   -0.1101882536E-08    0.6500000094E-07
     PET DIFF ERROR     6    8   -0.1101882536E-08    0.6500000094E-07
          0                13           2             7    6     1      -0.4356245242E-01       7    6    1        -0.2628778151E+01      0.2628808269E+01
          0                14           2             7    6     1       0.4277636205E-01       7    6    1         0.2604747142E+01      0.2604776313E+01
     PET DIFF ERROR     6    7   -0.1718996023E-08    0.6500000094E-07
     PET DIFF ERROR     6    8   -0.1718996023E-08    0.6500000094E-07
          0                15           2             7    6     1      -0.4146709697E-01       7    6    1        -0.2547935324E+01      0.2547962946E+01
          0                16           2             7    6     1       0.4074320722E-01       7    6    1         0.2526109126E+01      0.2526137544E+01
     PET DIFF ERROR     6    7   -0.2982993714E-08    0.6500000094E-07
     PET DIFF ERROR     6    8   -0.2982993714E-08    0.6500000094E-07
          0                17           2             7    6     1      -0.3906747752E-01       7    6    1        -0.2444149131E+01      0.2444174711E+01
          0                18           2             7    6     1       0.3842191500E-01       7    6    1         0.2425463646E+01      0.2425495765E+01
     PET DIFF ERROR     6    7   -0.4587245818E-08    0.6500000094E-07
     PET DIFF ERROR     6    8   -0.4587245818E-08    0.6500000094E-07
          0                19           2             7    6     1      -0.3594340808E-01       7    6    1        -0.2289515109E+01      0.2289538950E+01
          0                20           2             7    6     1       0.3542177554E-01       7    6    1         0.2276608244E+01      0.2276652361E+01
     PET DIFF ERROR     6    7   -0.1453257154E-08    0.6500000094E-07
     PET DIFF ERROR     6    8   -0.1453257154E-08    0.6500000094E-07
                                                   Max.-Head-Change                         Max.-Flux-Residual
  Residual-Control   Outer-Iter.   Inner-Iter.     Column Row Layer    Maximum-Head-Change  Column Row Layer    Maximum-Flux-Residual          L2-NORM 
          0                21           2             7    6     1      -0.3189108200E-01       7    6    1        -0.2068185954E+01      0.2068208074E+01
          0                22           2             7    6     1       0.3155189757E-01       7    6    1         0.2064565706E+01      0.2064584670E+01
          0                23           2             7    6     1       0.4385903532E-02       7    6    1         0.2867504676E+00      0.2868759133E+00
          0                24           2             7    6     1       0.1317829057E-02       7    6    1         0.8612146953E-01      0.8621810037E-01
          0                25           2             7    6     1       0.3960825112E-03       7    6    1         0.2587287027E-01      0.2592789433E-01
          0                26           2             7    6     1       0.1190800471E-03       7    6    1         0.7775064578E-02      0.7801921066E-02
          0                27           1             7    6     1       0.3581123863E-04       7    6    1         0.2337168169E-02      0.2349105066E-02
          0                28           1             7    6     1       0.1077276032E-04       7    6    1         0.7027531856E-03      0.7077363806E-03
          0                29           1             7    6     1       0.3241621496E-05       7    6    1         0.2113697894E-03      0.2133597141E-03

    ------------------------------------------------
       NWT REQUIRED           29 OUTER ITERATIONS 
       AND A TOTAL OF         55 INNER ITERATIONS.
    ------------------------------------------------

 NO OUTPUT CONTROL FOR STRESS PERIOD    9   TIME STEP   23
 
 SOLVING FOR HEAD 
     PET DIFF ERROR     6    7   -0.2230107517E-08    0.6500000094E-07
     PET DIFF ERROR     6    8   -0.2230107517E-08    0.6500000094E-07
                                                   Max.-Head-Change                         Max.-Flux-Residual
  Residual-Control   Outer-Iter.   Inner-Iter.     Column Row Layer    Maximum-Head-Change  Column Row Layer    Maximum-Flux-Residual          L2-NORM 
          0                 1           2             6   13     1      -0.7547882913E-02       6   13    1        -0.4026209200E+00      0.1547982199E+01
          0                 2           2             1    2     1       0.2291759508E-02       4   13    1         0.1283607532E+00      0.4452321478E+00
          0                 3           2             7    6     1      -0.7082080689E-01       7    6    1        -0.3902351744E+01      0.3904930869E+01
          0                 4           2             7    6     1       0.7289703832E-01       7    6    1         0.4053803677E+01      0.4059437877E+01
          0                 5           2             7    6     1      -0.1596309070E-02       7    6    1        -0.9009321786E-01      0.9776527578E-01
          0                 6           2             7    6     1      -0.2915723239E-03       7    6    1        -0.1644033799E-01      0.2072565141E-01
          0                 7           1             7    6     1      -0.5332398516E-04       7    6    1        -0.3003972827E-02      0.6230119723E-02
          0                 8           1             1    2     1       0.1875955004E-04       7    6    1        -0.5495657533E-03      0.2496427633E-02
          0                 9           1             1    2     1       0.8420723600E-05       1    2    1         0.2189176090E-03      0.1094791751E-02

    ------------------------------------------------
       NWT REQUIRED            9 OUTER ITERATIONS 
       AND A TOTAL OF         15 INNER ITERATIONS.
    ------------------------------------------------

 NO OUTPUT CONTROL FOR STRESS PERIOD    9   TIME STEP   24
 
 SOLVING FOR HEAD 
                                                   Max.-Head-Change                         Max.-Flux-Residual
  Residual-Control   Outer-Iter.   Inner-Iter.     Column Row Layer    Maximum-Head-Change  Column Row Layer    Maximum-Flux-Residual          L2-NORM 
          0                 1           2             6   13     1      -0.7367007047E-02       6   13    1        -0.3929712948E+00      0.1539529154E+01
          0                 2           2             1    2     1       0.2289401448E-02       4   13    1         0.1304313651E+00      0.4465754963E+00
          0                 3           2             7    6     1      -0.7249724192E-01       7    6    1        -0.3994722435E+01      0.3997236373E+01
          0                 4           2             7    6     1       0.7470705082E-01       7    6    1         0.4154460220E+01      0.4154993712E+01
     PET DIFF ERROR     6    7   -0.1051193892E-08    0.6500000094E-07
     PET DIFF ERROR     6    8   -0.1051193892E-08    0.6500000094E-07
          0                 5           2             7    6     1      -0.6765182303E-01       7    6    1        -0.3796626840E+01      0.3796786688E+01
          0                 6           2             7    6     1       0.6587611597E-01       7    6    1         0.3730710178E+01      0.3730781314E+01
     PET DIFF ERROR     6    7   -0.6160400405E-09    0.6500000094E-07
     PET DIFF ERROR     6    8   -0.6160400406E-09    0.6500000094E-07
          0                 7           2             7    6     1      -0.6870188816E-03       7    6    1        -0.3972561164E-01      0.4444192075E-01
     PET DIFF ERROR     6    7   -0.6143454465E-09    0.6500000094E-07
     PET DIFF ERROR     6    8   -0.6143454466E-09    0.6500000094E-07
          0                 8           2             7    6     1      -0.1333520477E-03       7    6    1        -0.7704473393E-02      0.8890802977E-02
     PET DIFF ERROR     6    7   -0.5899372220E-09    0.6500000094E-07
     PET DIFF ERROR     6    8   -0.5899372221E-09    0.6500000094E-07
          0                 9           1             2   13     1      -0.1179967011E-04       4   13    1        -0.7097643238E-03      0.1859590330E-02
          0                10           1             2   13     1      -0.1133520568E-04       4   13    1        -0.6799417579E-03      0.1463429082E-02
                                                   Max.-Head-Change                         Max.-Flux-Residual
  Residual-Control   Outer-Iter.   Inner-Iter.     Column Row Layer    Maximum-Head-Change  Column Row Layer    Maximum-Flux-Residual          L2-NORM 
          0                11           1             7    6     1      -0.2063983812E-04       7    6    1        -0.1179847454E-02      0.1732246437E-02
          0                12           1             7    6     1      -0.1296938768E-04       7    6    1        -0.7409965535E-03      0.1503266839E-02
          0                13           1             7    6     1       0.3631091938E-04       7    6    1         0.2093889709E-02      0.2480208055E-02
          0                14           2             7    6     1       0.1667977644E-03       7    6    1         0.9617539488E-02      0.9693227108E-02
          0                15           1             2   13     1      -0.6746936528E-05       4   13    1        -0.4035159072E-03      0.7544964916E-03

    ------------------------------------------------
       NWT REQUIRED           15 OUTER ITERATIONS 
       AND A TOTAL OF         24 INNER ITERATIONS.
    ------------------------------------------------

 NO OUTPUT CONTROL FOR STRESS PERIOD    9   TIME STEP   25
 
 SOLVING FOR HEAD 
                                                   Max.-Head-Change                         Max.-Flux-Residual
  Residual-Control   Outer-Iter.   Inner-Iter.     Column Row Layer    Maximum-Head-Change  Column Row Layer    Maximum-Flux-Residual          L2-NORM 
          0                 1           2             6   13     1      -0.7203594934E-02       6   13    1        -0.3842641843E+00      0.1533531551E+01
          0                 2           2             1    2     1       0.2287072564E-02       1    2    1         0.5941758493E-01      0.3752306833E+00
          0                 3           2             1    2     1       0.1027040168E-02       1    2    1         0.2669340531E-01      0.1400082547E+00
          0                 4           2             1    2     1       0.4610881361E-03       1    2    1         0.1198591220E-01      0.6070823484E-01
          0                 5           2             1    2     1       0.2069842456E-03       1    2    1         0.5380862662E-02      0.2704817097E-01
          0                 6           1             1    2     1       0.9291243165E-04       1    2    1         0.2415456046E-02      0.1210224706E-01
          0                 7           1             1    2     1       0.4170650619E-04       1    2    1         0.1084259644E-02      0.5418702684E-02
          0                 8           1             1    2     1       0.1872109497E-04       1    2    1         0.4867011328E-03      0.2426572466E-02
          0                 9           1             1    2     1       0.8403451182E-05       1    2    1         0.2184688058E-03      0.1086734790E-02

    ------------------------------------------------
       NWT REQUIRED            9 OUTER ITERATIONS 
       AND A TOTAL OF         14 INNER ITERATIONS.
    ------------------------------------------------

 NO OUTPUT CONTROL FOR STRESS PERIOD    9   TIME STEP   26
 
 SOLVING FOR HEAD 
                                                   Max.-Head-Change                         Max.-Flux-Residual
  Residual-Control   Outer-Iter.   Inner-Iter.     Column Row Layer    Maximum-Head-Change  Column Row Layer    Maximum-Flux-Residual          L2-NORM 
          0                 1           2             6   13     1      -0.7030971832E-02       6   13    1        -0.3750553094E+00      0.1525948915E+01
          0                 2           2             1    2     1       0.2284765014E-02       4   13    1         0.1300302976E+00      0.4447449353E+00
          0                 3           2             7    6     1      -0.7249660530E-01       7    6    1        -0.3994691970E+01      0.3997191319E+01
          0                 4           2             7    6     1       0.7470067772E-01       7    6    1         0.4154110181E+01      0.4155237150E+01
     PET DIFF ERROR     6    7   -0.3865033998E-08    0.6500000094E-07
     PET DIFF ERROR     6    8   -0.3865033998E-08    0.6500000094E-07
          0                 5           2             7    6     1      -0.4836395863E-01       7    6    1        -0.2714345021E+01      0.2714573250E+01
          0                 6           2             7    6     1       0.4542271958E-01       7    6    1         0.2572382621E+01      0.2572458737E+01
          0                 7           2             7    6     1       0.6942325518E-03       7    6    1         0.3898565392E-01      0.4156404267E-01
          0                 8           2             7    6     1       0.1344314018E-03       7    6    1         0.7543518151E-02      0.8409217425E-02
          0                 9           1             7    6     1       0.2605584869E-04       7    6    1         0.1460997986E-02      0.1914566541E-02
          0                10           1             7    6     1       0.5055043095E-05       7    6    1         0.2832269595E-03      0.5768016825E-03

    ------------------------------------------------
       NWT REQUIRED           10 OUTER ITERATIONS 
       AND A TOTAL OF         18 INNER ITERATIONS.
    ------------------------------------------------

 NO OUTPUT CONTROL FOR STRESS PERIOD    9   TIME STEP   27
 
 SOLVING FOR HEAD 
     PET DIFF ERROR     6    7   -0.1204710687E-07    0.6500000094E-07
     PET DIFF ERROR     6    8   -0.1204710687E-07    0.6500000094E-07
                                                   Max.-Head-Change                         Max.-Flux-Residual
  Residual-Control   Outer-Iter.   Inner-Iter.     Column Row Layer    Maximum-Head-Change  Column Row Layer    Maximum-Flux-Residual          L2-NORM 
          0                 1           2             6   13     1      -0.6871898333E-02       6   13    1        -0.3665832435E+00      0.1519867267E+01
          0                 2           2             1    2     1       0.2282446837E-02       4   13    1         0.1124081700E+00      0.4277199562E+00
          0                 3           2             7    6     1      -0.6176082625E-01       7    6    1        -0.3403173591E+01      0.3406082408E+01
          0                 4           2             7    6     1       0.6310619337E-01       7    6    1         0.3509344012E+01      0.3513663298E+01
          0                 5           2             7    6     1      -0.9990171953E-03       7    6    1        -0.5650868816E-01      0.6649136756E-01
          0                 6           2             7    6     1      -0.1818949497E-03       7    6    1        -0.1027877602E-01      0.1615166928E-01
          0                 7           1             1    2     1       0.4162200668E-04       7    6    1        -0.1872191948E-02      0.5739126694E-02
          0                 8           1             1    2     1       0.1868314062E-04       1    2    1         0.4857149305E-03      0.2445310001E-02
          0                 9           1             1    2     1       0.8386403363E-05       1    2    1         0.2180258337E-03      0.1085744354E-02

    ------------------------------------------------
       NWT REQUIRED            9 OUTER ITERATIONS 
       AND A TOTAL OF         15 INNER ITERATIONS.
    ------------------------------------------------

 NO OUTPUT CONTROL FOR STRESS PERIOD    9   TIME STEP   28
 
 SOLVING FOR HEAD 
                                                   Max.-Head-Change                         Max.-Flux-Residual
  Residual-Control   Outer-Iter.   Inner-Iter.     Column Row Layer    Maximum-Head-Change  Column Row Layer    Maximum-Flux-Residual          L2-NORM 
          0                 1           2             6   13     1      -0.7042019761E-02       6   13    1        -0.3757572355E+00      0.1530448895E+01
          0                 2           2             4   13     1       0.2372659066E-02       4   13    1         0.1373320805E+00      0.4487776012E+00
          0                 3           2             7    6     1      -0.7249659579E-01       7    6    1        -0.3994694216E+01      0.3997179261E+01
          0                 4           2             7    6     1       0.7470043744E-01       7    6    1         0.4154101733E+01      0.4155178120E+01
     PET DIFF ERROR     6    7   -0.4950249718E-08    0.6500000094E-07
     PET DIFF ERROR     6    8   -0.4950249718E-08    0.6500000094E-07
          0                 5           2             7    6     1      -0.4921448097E-01       7    6    1        -0.2762072771E+01      0.2762295827E+01
          0                 6           2             7    6     1       0.4632467570E-01       7    6    1         0.2623465906E+01      0.2623552180E+01
          0                 7           2             7    6     1       0.6527264947E-03       7    6    1         0.3662914150E-01      0.3945024239E-01
          0                 8           2             7    6     1       0.1265090514E-03       7    6    1         0.7094070487E-02      0.8018787035E-02
          0                 9           1             7    6     1       0.2454223292E-04       7    6    1         0.1375194492E-02      0.1849349576E-02
          0                10           1             7    6     1       0.4765575957E-05       7    6    1         0.2668304953E-03      0.5677715227E-03

    ------------------------------------------------
       NWT REQUIRED           10 OUTER ITERATIONS 
       AND A TOTAL OF         18 INNER ITERATIONS.
    ------------------------------------------------

 NO OUTPUT CONTROL FOR STRESS PERIOD    9   TIME STEP   29
 
 SOLVING FOR HEAD 
     PET DIFF ERROR     6    7   -0.1158645620E-07    0.6500000094E-07
     PET DIFF ERROR     6    8   -0.1158645620E-07    0.6500000094E-07
                                                   Max.-Head-Change                         Max.-Flux-Residual
  Residual-Control   Outer-Iter.   Inner-Iter.     Column Row Layer    Maximum-Head-Change  Column Row Layer    Maximum-Flux-Residual          L2-NORM 
          0                 1           2             6   13     1      -0.7831725555E-02       4   13    1        -0.4183987145E+00      0.1640084096E+01
          0                 2           2             4   13     1       0.2453087188E-02       4   13    1         0.1417877759E+00      0.4476019125E+00
          0                 3           2             7    6     1      -0.6226094033E-01       7    6    1        -0.3430723756E+01      0.3433591526E+01
          0                 4           2             7    6     1       0.6364759404E-01       7    6    1         0.3539456915E+01      0.3543614407E+01
          0                 5           2             7    6     1      -0.1033394784E-02       7    6    1        -0.5844131007E-01      0.6811645841E-01
          0                 6           2             7    6     1      -0.1882092397E-03       7    6    1        -0.1063343904E-01      0.1635217822E-01
          0                 7           1             1    2     1       0.4149244065E-04       7    6    1        -0.1937355795E-02      0.5743508886E-02
          0                 8           1             1    2     1       0.1862493778E-04       1    2    1         0.4842026409E-03      0.2438861874E-02
          0                 9           1             1    2     1       0.8360263257E-05       1    2    1         0.2173465466E-03      0.1082207485E-02

    ------------------------------------------------
       NWT REQUIRED            9 OUTER ITERATIONS 
       AND A TOTAL OF         15 INNER ITERATIONS.
    ------------------------------------------------

 NO OUTPUT CONTROL FOR STRESS PERIOD    9   TIME STEP   30



 STREAM LISTING     PERIOD      9   STEP       30

 LAYER ROW COL. STREAM  RCH.  FLOW INTO     FLOW TO   FLOW OUT OF   OVRLND.     DIRECT     STREAM       STREAM     STREAM     STREAM   STREAMBED  STREAMBED
                SEG.NO.  NO.  STRM. RCH.    AQUIFER    STRM. RCH.    RUNOFF     PRECIP       ET          HEAD       DEPTH      WIDTH   CONDCTNC.   GRADIENT

   1    1    1     1     1    2.1000E+01  2.2592E-01   2.0774E+01  0.000E+00  0.000E+00  0.000E+00  1.09416E+03  1.115E+00  1.220E+01  5.490E-02  1.372E+00
   1    2    2     1     2    2.0774E+01  3.4916E-01   2.0425E+01  0.000E+00  0.000E+00  0.000E+00  1.08917E+03  1.110E+00  1.214E+01  8.495E-02  1.370E+00
   1    3    3     1     3    2.0425E+01  2.9709E-01   2.0128E+01  0.000E+00  0.000E+00  0.000E+00  1.08352E+03  1.105E+00  1.206E+01  7.238E-02  1.368E+00
   1    3    4     1     4    2.0128E+01  2.7299E-01   1.9855E+01  0.000E+00  0.000E+00  0.000E+00  1.07851E+03  1.100E+00  1.200E+01  6.659E-02  1.367E+00
   1    4    5     2     1    1.7855E+01  3.1056E-01   1.7544E+01  0.000E+00  0.000E+00  0.000E+00  1.07292E+03  9.816E-01  1.200E+01  7.800E-02  1.327E+00
   1    5    6     2     2    1.7544E+01  2.3834E-01   1.7306E+01  0.000E+00  0.000E+00  0.000E+00  1.06748E+03  9.724E-01  1.200E+01  6.000E-02  1.324E+00
   1    6    6     2     3    1.7306E+01  2.3786E-01   1.7068E+01  0.000E+00  0.000E+00  0.000E+00  1.06276E+03  9.644E-01  1.200E+01  6.000E-02  1.321E+00
   1    7    6     2     4    1.7068E+01  2.3738E-01   1.6831E+01  0.000E+00  0.000E+00  0.000E+00  1.05803E+03  9.564E-01  1.200E+01  6.000E-02  1.319E+00
   1    8    6     2     5    1.6831E+01  2.3690E-01   1.6594E+01  0.000E+00  0.000E+00  0.000E+00  1.05331E+03  9.483E-01  1.200E+01  6.000E-02  1.316E+00
   1    3    5     3     1    2.0000E+00  2.8252E-01   1.7175E+00  0.000E+00  0.000E+00  0.000E+00  1.07555E+03  1.909E+00  9.636E+00  7.227E-02  1.955E+00
   1    3    6     3     2    1.7175E+00  2.4905E-01   1.4684E+00  0.000E+00  0.000E+00  0.000E+00  1.07264E+03  1.727E+00  8.909E+00  6.682E-02  1.864E+00
   1    3    7     3     3    1.4684E+00  1.9718E-01   1.2712E+00  0.000E+00  0.000E+00  0.000E+00  1.06987E+03  1.555E+00  8.218E+00  5.547E-02  1.777E+00
   1    4    8     3     4    1.2712E+00  2.2567E-01   1.0456E+00  0.000E+00  0.000E+00  0.000E+00  1.06682E+03  1.364E+00  7.455E+00  6.709E-02  1.682E+00
   1    5    8     3     5    1.0456E+00  1.5790E-01   8.8768E-01  0.000E+00  0.000E+00  0.000E+00  1.06362E+03  1.164E+00  6.655E+00  4.991E-02  1.582E+00
   1    6    8     3     6    8.8768E-01  5.5980E-02   8.3170E-01  0.000E+00  0.000E+00  0.000E+00  1.06158E+03  1.036E+00  6.145E+00  1.844E-02  1.518E+00
   1    5   10     4     1    1.0000E+01  9.0919E-02   9.9091E+00  0.000E+00  0.000E+00  0.000E+00  1.07836E+03  6.368E-01  1.000E+01  2.500E-02  1.212E+00
   1    5    9     4     2    9.9091E+00  1.8158E-01   9.7275E+00  0.000E+00  0.000E+00  0.000E+00  1.07154E+03  6.315E-01  1.000E+01  5.000E-02  1.211E+00
   1    6    8     4     3    9.7275E+00  1.2689E-01   9.6006E+00  0.000E+00  0.000E+00  0.000E+00  1.06381E+03  6.256E-01  1.000E+01  3.500E-02  1.209E+00
   1    6    8     5     1    1.0432E+01  2.2686E-01   1.0205E+01  0.000E+00  0.000E+00  0.000E+00  1.05868E+03  6.790E-01  1.542E+01  6.166E-02  1.226E+00
   1    7    7     5     2    1.0205E+01  2.7894E-01   9.9265E+00  0.000E+00  0.000E+00  0.000E+00  1.05417E+03  6.732E-01  1.519E+01  7.594E-02  1.224E+00
   1    8    7     5     3    9.9265E+00  1.9221E-01   9.7343E+00  0.000E+00  0.000E+00  0.000E+00  1.04992E+03  6.676E-01  1.497E+01  5.241E-02  1.223E+00
   1    8    6     5     4    9.7343E+00  1.3577E-01   9.5985E+00  0.000E+00  0.000E+00  0.000E+00  1.04691E+03  6.637E-01  1.482E+01  3.706E-02  1.221E+00
   1    9    6     6     1    2.1635E+01  2.4695E-01   2.1388E+01  0.000E+00  0.000E+00  0.000E+00  1.04384E+03  1.116E+00  1.200E+01  6.000E-02  1.372E+00
   1   10    7     6     2    2.1388E+01  2.4648E-01   2.1142E+01  0.000E+00  0.000E+00  0.000E+00  1.03929E+03  1.108E+00  1.200E+01  6.000E-02  1.369E+00
   1   11    7     6     3    2.1142E+01  2.4602E-01   2.0896E+01  0.000E+00  0.000E+00  0.000E+00  1.03474E+03  1.100E+00  1.200E+01  6.000E-02  1.367E+00
   1   12    7     6     4    2.0896E+01  2.4556E-01   2.0650E+01  0.000E+00  0.000E+00  0.000E+00  1.03018E+03  1.093E+00  1.200E+01  6.000E-02  1.364E+00
   1   13    7     6     5    2.0650E+01  3.6136E-03   2.0647E+01  0.000E+00  0.000E+00  0.000E+00  1.02700E+03  1.089E+00  1.200E+01  2.400E-02  5.019E-02
   1   14    9     7     1    1.5000E+02  1.1483E+00   1.4885E+02  0.000E+00  0.000E+00  0.000E+00  1.03987E+03  2.288E+00  5.530E+01  5.593E-01  6.843E-01
   1   13    8     7     2    1.4885E+02  1.6457E+00   1.4721E+02  0.000E+00  0.000E+00  0.000E+00  1.03478E+03  2.281E+00  5.526E+01  6.149E-01  8.922E-01
   1   13    7     7     3    1.4721E+02  1.5886E+00   1.4562E+02  0.000E+00  0.000E+00  0.000E+00  1.02969E+03  2.272E+00  5.522E+01  5.585E-01  9.481E-01
   1   13    6     8     1    1.6626E+02  1.0276E+00   1.6524E+02  0.000E+00  0.000E+00  0.000E+00  1.02480E+03  2.924E+00  4.240E+01  4.321E-01  7.927E-01
   1   13    5     8     2    1.6524E+02  2.7207E-01   1.6496E+02  0.000E+00  0.000E+00  0.000E+00  1.01854E+03  2.920E+00  4.234E+01  4.315E-01  2.102E-01
   1   13    4     8     3    1.6496E+02 -2.0202E+00   1.6698E+02  0.000E+00  0.000E+00  0.000E+00  1.01230E+03  2.926E+00  4.242E+01  4.323E+00 -1.558E-01
   1   13    3     8     4    1.6698E+02 -3.0649E+00   1.7005E+02  0.000E+00  0.000E+00  0.000E+00  1.00607E+03  2.943E+00  4.267E+01  4.348E+00 -2.350E-01
   1   13    2     8     5    1.7005E+02 -1.5474E+00   1.7160E+02  0.000E+00  0.000E+00  0.000E+00  9.99833E+02  2.958E+00  4.288E+01  4.370E+00 -1.180E-01
   1   13    1     8     6    1.7160E+02 -8.5932E-01   1.7246E+02  0.000E+00  0.000E+00  0.000E+00  9.94840E+02  2.965E+00  4.300E+01  2.629E+00 -1.090E-01
   1    6    8     9     1    4.5569E+00  0.0000E+00   4.5569E+00  0.000E+00  0.000E+00  0.000E+00  1.07884E+03  3.363E-01  4.000E+00  0.000E+00  1.112E+00





UNSATURATED ZONE PACKAGE VOLUMETRIC BUDGET FOR  TIME STEP    30 STRESS PERIOD    9
  ------------------------------------------------------------------------------



     CUMULATIVE VOLUMES      L**3       RATES FOR THIS TIME STEP      L**3/T
     ------------------                 ------------------------

           IN:                                      IN:
           ---                                      ---
        INFILTRATION =    15940687.9431          INFILTRATION =           4.5569

          OUT:                                     OUT:
          ----                                     ----
              UZF ET =   542873551.7044                UZF ET =           3.2500
        UZF RECHARGE =   534435017.7005          UZF RECHARGE =          22.3116

            IN - OUT = -1061367881.4618              IN - OUT =         -21.0047

          STORAGE:                                 STORAGE:
          --------                                 --------
      STORAGE CHANGE = -1061342090.6252        STORAGE CHANGE =         -21.0047

 PERCENT DISCREPANCY IS DIFFERENCE BETWEEN IN-OUT MINUS CHANGE IN STORAGE
 DIVIDED BY THE AVERAGE OF IN AND OUT TIMES 100

 PERCENT DISCREPANCY =          -0.00     PERCENT DISCREPANCY =           0.00






1
  VOLUMETRIC BUDGET FOR ENTIRE MODEL AT END OF TIME STEP   30, STRESS PERIOD   9
  ------------------------------------------------------------------------------

     CUMULATIVE VOLUMES      L**3       RATES FOR THIS TIME STEP      L**3/T
     ------------------                 ------------------------

           IN:                                      IN:
           ---                                      ---
             STORAGE     =    32043256.0000               STORAGE     =           3.1481
       CONSTANT HEAD     =           0.0000         CONSTANT HEAD     =           0.0000
               WELLS     =           0.0000                 WELLS     =           0.0000
     HEAD DEP BOUNDS     =     5836655.0000       HEAD DEP BOUNDS     =           0.2730
      STREAM LEAKAGE     =   248022320.0000        STREAM LEAKAGE     =          11.4785
        UZF RECHARGE     =   534435008.0000          UZF RECHARGE     =          22.3116
               GW ET     =           0.0000                 GW ET     =           0.0000
     SURFACE LEAKAGE     =           0.0000       SURFACE LEAKAGE     =           0.0000
    SUPPLEMENTARY WELLS  =           0.0000      SUPPLEMENTARY WELLS  =           0.0000

                TOTAL IN =   820337280.0000                  TOTAL IN =          37.2112

          OUT:                                     OUT:
          ----                                     ----
             STORAGE     =   524798272.0000               STORAGE     =          18.4314
       CONSTANT HEAD     =           0.0000         CONSTANT HEAD     =           0.0000
               WELLS     =           0.0000                 WELLS     =           0.0000
     HEAD DEP BOUNDS     =     6100937.5000       HEAD DEP BOUNDS     =           0.2724
      STREAM LEAKAGE     =   212280880.0000        STREAM LEAKAGE     =           7.4918
        UZF RECHARGE     =           0.0000          UZF RECHARGE     =           0.0000
               GW ET     =    77034552.0000                 GW ET     =          11.0124
     SURFACE LEAKAGE     =           0.0000       SURFACE LEAKAGE     =           0.0000
    SUPPLEMENTARY WELLS  =       35285.1836      SUPPLEMENTARY WELLS  =           0.0000

               TOTAL OUT =   820249920.0000                 TOTAL OUT =          37.2080

                IN - OUT =       87360.0000                  IN - OUT =       3.2616E-03

     PERCENT DISCREPANCY =           0.01         PERCENT DISCREPANCY =           0.01






         TIME SUMMARY AT END OF TIME STEP   30 IN STRESS PERIOD    9
                    SECONDS     MINUTES      HOURS       DAYS        YEARS
                    -----------------------------------------------------------
   TIME STEP LENGTH  87600.      1460.0      24.333      1.0139     2.77588E-03
 STRESS PERIOD TIME 2.62800E+06  43800.      730.00      30.417     8.32763E-02
         TOTAL TIME 2.11104E+07 3.51840E+05  5864.0      244.33     0.66895    
1
1
                            STRESS PERIOD NO.   10, LENGTH =   2628000.    
                            -----------------------------------------------

                              NUMBER OF TIME STEPS =    30

                               MULTIPLIER FOR DELT =     1.000

                            INITIAL TIME STEP SIZE =   87600.00    

 WELL NO.  LAYER   ROW   COL   STRESS RATE         
 --------------------------------------------------
      1      1      6      4       0.000    
      2      1      6      7       0.000    
      3      1      7      4       0.000    
      4      1      7      5       0.000    
      5      1      8      4       0.000    
      6      1      8      5       0.000    
      7      1      9      4       0.000    
      8      1      9      5       0.000    
      9      1     10      4       0.000    
     10      1     10      5       0.000    

     10 WELLS

 REUSING NON-PARAMETER GHB CELLS FROM LAST STRESS PERIOD

      2 GHB CELLS

 REUSING STREAM SEGMENT DATA FROM LAST STRESS PERIOD



            AREAL INFILTRATION RATE
 READING ON UNIT   19 WITH FORMAT: (10F4.0)            

            1           2           3           4           5           6           7           8           9          10
 ........................................................................................................................
   1    0.000       0.000       0.000       0.000       0.000       0.000       0.000       0.000       0.000       0.000    
   2    0.000       0.000       0.000       0.000       0.000       0.000       0.000       0.000       0.000       0.000    
   3    0.000       0.000       0.000       0.000       0.000       0.000       0.000       0.000       0.000       0.000    
   4    0.000       0.000       0.000       0.000       0.000       0.000       0.000       0.000       0.000       0.000    
   5    0.000       0.000       0.000       0.000       0.000       0.000       0.000       0.000       0.000       0.000    
   6    0.000       0.000       0.000       0.000       0.000       0.000       0.000       0.000       0.000       0.000    
   7    0.000       0.000       0.000       0.000       0.000       0.000       0.000       0.000       0.000       0.000    
   8    0.000       0.000       0.000       0.000       0.000       0.000       0.000       0.000       0.000       0.000    
   9    0.000       0.000       0.000       0.000       0.000       0.000       0.000       0.000       0.000       0.000    
  10    0.000       0.000       0.000       0.000       0.000       0.000       0.000       0.000       0.000       0.000    
  11    0.000       0.000       0.000       0.000       0.000       0.000       0.000       0.000       0.000       0.000    
  12    0.000       0.000       0.000       0.000       0.000       0.000       0.000       0.000       0.000       0.000    
  13    0.000       0.000       0.000       0.000       0.000       0.000       0.000       0.000       0.000       0.000    
  14    0.000       0.000       0.000       0.000       0.000       0.000       0.000       0.000       0.000       0.000    
  15    0.000       0.000       0.000       0.000       0.000       0.000       0.000       0.000       0.000       0.000    

                  ET RATE =  1.500000E-08

 USING ET EXTINCTION DEPTH FROM PREVIOUS STRESS PERIOD. CURRENT PERIOD IS:      10

 USING EXTINCTION WATER CONTENT FROM PREVIOUS STRESS PERIOD. CURRENT PERIOD IS:      10

 PROCESSING AGO STRESS PERIOD DATA

 READING AGO STRESS PERIOD DATA

 READING IRRIGATION STREAM

 READING IRRIGATION WELL

 READING SUPPLEMENTAL WEL

 END PROCESSING AGO STRESS PERIOD DATA OPTIONS
 
 SOLVING FOR HEAD 
                                                   Max.-Head-Change                         Max.-Flux-Residual
  Residual-Control   Outer-Iter.   Inner-Iter.     Column Row Layer    Maximum-Head-Change  Column Row Layer    Maximum-Flux-Residual          L2-NORM 
          0                 1           2             5   13     1       0.1785419846E-01       5   13    1         0.9550779646E+00      0.2734138072E+01
          0                 2           2             1    2     1       0.2272067270E-02       7   13    1        -0.8494145230E-01      0.3883499878E+00
          0                 3           2             1    2     1       0.1020188069E-02       1    2    1         0.2651720661E-01      0.1389078034E+00
          0                 4           2             1    2     1       0.4579912254E-03       1    2    1         0.1190575667E-01      0.6019472735E-01
          0                 5           2             1    2     1       0.2055900208E-03       1    2    1         0.5344687134E-02      0.2683018478E-01
          0                 6           1             1    2     1       0.9228569664E-04       1    2    1         0.2399178834E-02      0.1200613286E-01
          0                 7           1             1    2     1       0.4142493868E-04       1    2    1         0.1076944234E-02      0.5375949647E-02
          0                 8           1             1    2     1       0.1859462607E-04       1    2    1         0.4834148704E-03      0.2407547544E-02
          0                 9           1             1    2     1       0.8346651214E-05       1    2    1         0.2169927890E-03      0.1078283735E-02

    ------------------------------------------------
       NWT REQUIRED            9 OUTER ITERATIONS 
       AND A TOTAL OF         14 INNER ITERATIONS.
    ------------------------------------------------

 NO OUTPUT CONTROL FOR STRESS PERIOD   10   TIME STEP    1
 
 SOLVING FOR HEAD 
                                                   Max.-Head-Change                         Max.-Flux-Residual
  Residual-Control   Outer-Iter.   Inner-Iter.     Column Row Layer    Maximum-Head-Change  Column Row Layer    Maximum-Flux-Residual          L2-NORM 
          0                 1           2             5   13     1       0.1735078649E-01       5   13    1         0.9285386262E+00      0.2613475505E+01
          0                 2           2             1    2     1       0.2268374115E-02       7   13    1        -0.8005281160E-01      0.3869591234E+00
          0                 3           2             1    2     1       0.1018530874E-02       1    2    1         0.2647411761E-01      0.1386539458E+00
          0                 4           2             1    2     1       0.4572472581E-03       1    2    1         0.1188641839E-01      0.6009380625E-01
          0                 5           2             1    2     1       0.2052559700E-03       1    2    1         0.5336004991E-02      0.2678595437E-01
          0                 6           1             1    2     1       0.9213569355E-04       1    2    1         0.2395280350E-02      0.1198653752E-01
          0                 7           1             1    2     1       0.4135757928E-04       1    2    1         0.1075193631E-02      0.5367295236E-02
          0                 8           1             1    2     1       0.1856437789E-04       1    2    1         0.4826287503E-03      0.2403706165E-02
          0                 9           1             1    2     1       0.8333067683E-05       1    2    1         0.2166397712E-03      0.1076560821E-02

    ------------------------------------------------
       NWT REQUIRED            9 OUTER ITERATIONS 
       AND A TOTAL OF         14 INNER ITERATIONS.
    ------------------------------------------------

 NO OUTPUT CONTROL FOR STRESS PERIOD   10   TIME STEP    2
 
 SOLVING FOR HEAD 
     PET DIFF ERROR     6    7   -0.2171006314E-08    0.1499999902E-07
     PET DIFF ERROR     6    8   -0.2171006402E-08    0.1499999902E-07
                                                   Max.-Head-Change                         Max.-Flux-Residual
  Residual-Control   Outer-Iter.   Inner-Iter.     Column Row Layer    Maximum-Head-Change  Column Row Layer    Maximum-Flux-Residual          L2-NORM 
          0                 1           2             5   13     1       0.1685684917E-01       5   13    1         0.9024417480E+00      0.2504027013E+01
          0                 2           2             1    2     1       0.2264709615E-02       7   13    1        -0.7571064665E-01      0.3854895438E+00
          0                 3           2             1    2     1       0.1016886520E-02       1    2    1         0.2643136277E-01      0.1383158904E+00
          0                 4           2             1    2     1       0.4565090519E-03       1    2    1         0.1186722992E-01      0.5999446049E-01
          0                 5           2             1    2     1       0.2049245056E-03       1    2    1         0.5327390071E-02      0.2680097395E-01
          0                 6           1             1    2     1       0.9198685146E-04       1    2    1         0.2391412039E-02      0.1196864971E-01
          0                 7           1             1    2     1       0.4129074110E-04       1    2    1         0.1073456577E-02      0.5406775522E-02
          0                 8           1             7    6     1      -0.2169084243E-04       7    6    1        -0.1217115574E-02      0.2698520233E-02
          0                 9           1             7    6     1       0.2771216367E-04       7    6    1         0.1569346346E-02      0.1919517416E-02
          0                10           1             1    2     1       0.3734442753E-05       1    2    1         0.9708665623E-04      0.5099985868E-03

    ------------------------------------------------
       NWT REQUIRED           10 OUTER ITERATIONS 
       AND A TOTAL OF         15 INNER ITERATIONS.
    ------------------------------------------------

 NO OUTPUT CONTROL FOR STRESS PERIOD   10   TIME STEP    3
 
 SOLVING FOR HEAD 
                                                   Max.-Head-Change                         Max.-Flux-Residual
  Residual-Control   Outer-Iter.   Inner-Iter.     Column Row Layer    Maximum-Head-Change  Column Row Layer    Maximum-Flux-Residual          L2-NORM 
          0                 1           2             5   13     1       0.1637242858E-01       5   13    1         0.8768140533E+00      0.2404960753E+01
          0                 2           2             1    2     1       0.2261069700E-02       5   13    1        -0.7904035294E-01      0.3835794330E+00
          0                 3           2             1    2     1       0.1015253186E-02       1    2    1         0.2638889465E-01      0.1380926448E+00
          0                 4           2             1    2     1       0.4557757916E-03       1    2    1         0.1184817003E-01      0.5989863665E-01
          0                 5           2             1    2     1       0.2045952617E-03       1    2    1         0.5318832869E-02      0.2670169648E-01
          0                 6           1             1    2     1       0.9183900682E-04       1    2    1         0.2387569642E-02      0.1194929081E-01
          0                 7           1             1    2     1       0.4122435038E-04       1    2    1         0.1071731149E-02      0.5350786458E-02
          0                 8           1             1    2     1       0.1850454983E-04       1    2    1         0.4810738989E-03      0.2396386810E-02
          0                 9           1             1    2     1       0.8306201505E-05       1    2    1         0.2159415520E-03      0.1073315425E-02

    ------------------------------------------------
       NWT REQUIRED            9 OUTER ITERATIONS 
       AND A TOTAL OF         14 INNER ITERATIONS.
    ------------------------------------------------

 NO OUTPUT CONTROL FOR STRESS PERIOD   10   TIME STEP    4
 
 SOLVING FOR HEAD 
                                                   Max.-Head-Change                         Max.-Flux-Residual
  Residual-Control   Outer-Iter.   Inner-Iter.     Column Row Layer    Maximum-Head-Change  Column Row Layer    Maximum-Flux-Residual          L2-NORM 
          0                 1           2             5   13     1       0.1589314579E-01       5   13    1         0.8513378735E+00      0.2318633802E+01
          0                 2           2             1    2     1       0.2257461433E-02       5   13    1        -0.6831697803E-01      0.3853666031E+00
          0                 3           2             1    2     1       0.1013634037E-02       1    2    1         0.2634679563E-01      0.1379918744E+00
          0                 4           2             1    2     1       0.4550488956E-03       1    2    1         0.1182927564E-01      0.5983530707E-01
          0                 5           2             1    2     1       0.2042688747E-03       1    2    1         0.5310349937E-02      0.2666439738E-01
          0                 6           1             1    2     1       0.9169244450E-04       1    2    1         0.2383760589E-02      0.1193220939E-01
          0                 7           1             1    2     1       0.4115853591E-04       1    2    1         0.1070020704E-02      0.5343382210E-02
          0                 8           1             1    2     1       0.1847499521E-04       1    2    1         0.4803058117E-03      0.2393486682E-02
          0                 9           1             1    2     1       0.8292929863E-05       1    2    1         0.2155966367E-03      0.1071831128E-02

    ------------------------------------------------
       NWT REQUIRED            9 OUTER ITERATIONS 
       AND A TOTAL OF         14 INNER ITERATIONS.
    ------------------------------------------------

 OUTPUT CONTROL FOR STRESS PERIOD   10   TIME STEP    5
    PRINT BUDGET
    SAVE BUDGET
 UBUDSV SAVING "         STORAGE" ON UNIT102 AT TIME STEP     5, STRESS PERIOD   10
 UBUDSV SAVING "   CONSTANT HEAD" ON UNIT102 AT TIME STEP     5, STRESS PERIOD   10
 UBUDSV SAVING "FLOW RIGHT FACE " ON UNIT102 AT TIME STEP     5, STRESS PERIOD   10
 UBUDSV SAVING "FLOW FRONT FACE " ON UNIT102 AT TIME STEP     5, STRESS PERIOD   10

  HEAD DEP BOUNDS   PERIOD   10   STEP     5
 BOUNDARY      1   LAYER   1   ROW    13   COL     1   RATE   -0.275320    
 BOUNDARY      2   LAYER   1   ROW    14   COL     9   RATE    0.272958    



 STREAM LISTING     PERIOD     10   STEP        5

 LAYER ROW COL. STREAM  RCH.  FLOW INTO     FLOW TO   FLOW OUT OF   OVRLND.     DIRECT     STREAM       STREAM     STREAM     STREAM   STREAMBED  STREAMBED
                SEG.NO.  NO.  STRM. RCH.    AQUIFER    STRM. RCH.    RUNOFF     PRECIP       ET          HEAD       DEPTH      WIDTH   CONDCTNC.   GRADIENT

   1    1    1     1     1    2.1000E+01  2.2592E-01   2.0774E+01  0.000E+00  0.000E+00  0.000E+00  1.09416E+03  1.115E+00  1.220E+01  5.490E-02  1.372E+00
   1    2    2     1     2    2.0774E+01  3.4916E-01   2.0425E+01  0.000E+00  0.000E+00  0.000E+00  1.08917E+03  1.110E+00  1.214E+01  8.495E-02  1.370E+00
   1    3    3     1     3    2.0425E+01  2.9709E-01   2.0128E+01  0.000E+00  0.000E+00  0.000E+00  1.08352E+03  1.105E+00  1.206E+01  7.238E-02  1.368E+00
   1    3    4     1     4    2.0128E+01  2.7299E-01   1.9855E+01  0.000E+00  0.000E+00  0.000E+00  1.07851E+03  1.100E+00  1.200E+01  6.659E-02  1.367E+00
   1    4    5     2     1    1.7855E+01  3.1056E-01   1.7544E+01  0.000E+00  0.000E+00  0.000E+00  1.07292E+03  9.816E-01  1.200E+01  7.800E-02  1.327E+00
   1    5    6     2     2    1.7544E+01  2.3834E-01   1.7306E+01  0.000E+00  0.000E+00  0.000E+00  1.06748E+03  9.724E-01  1.200E+01  6.000E-02  1.324E+00
   1    6    6     2     3    1.7306E+01  2.3786E-01   1.7068E+01  0.000E+00  0.000E+00  0.000E+00  1.06276E+03  9.644E-01  1.200E+01  6.000E-02  1.321E+00
   1    7    6     2     4    1.7068E+01  2.3738E-01   1.6831E+01  0.000E+00  0.000E+00  0.000E+00  1.05803E+03  9.564E-01  1.200E+01  6.000E-02  1.319E+00
   1    8    6     2     5    1.6831E+01  2.3690E-01   1.6594E+01  0.000E+00  0.000E+00  0.000E+00  1.05331E+03  9.483E-01  1.200E+01  6.000E-02  1.316E+00
   1    3    5     3     1    2.0000E+00  2.8252E-01   1.7175E+00  0.000E+00  0.000E+00  0.000E+00  1.07555E+03  1.909E+00  9.636E+00  7.227E-02  1.955E+00
   1    3    6     3     2    1.7175E+00  2.4905E-01   1.4684E+00  0.000E+00  0.000E+00  0.000E+00  1.07264E+03  1.727E+00  8.909E+00  6.682E-02  1.864E+00
   1    3    7     3     3    1.4684E+00  1.9718E-01   1.2712E+00  0.000E+00  0.000E+00  0.000E+00  1.06987E+03  1.555E+00  8.218E+00  5.547E-02  1.777E+00
   1    4    8     3     4    1.2712E+00  2.2567E-01   1.0456E+00  0.000E+00  0.000E+00  0.000E+00  1.06682E+03  1.364E+00  7.455E+00  6.709E-02  1.682E+00
   1    5    8     3     5    1.0456E+00  1.5790E-01   8.8768E-01  0.000E+00  0.000E+00  0.000E+00  1.06362E+03  1.164E+00  6.655E+00  4.991E-02  1.582E+00
   1    6    8     3     6    8.8768E-01  5.5980E-02   8.3170E-01  0.000E+00  0.000E+00  0.000E+00  1.06158E+03  1.036E+00  6.145E+00  1.844E-02  1.518E+00
   1    5   10     4     1    1.0000E+01  9.0919E-02   9.9091E+00  0.000E+00  0.000E+00  0.000E+00  1.07836E+03  6.368E-01  1.000E+01  2.500E-02  1.212E+00
   1    5    9     4     2    9.9091E+00  1.8158E-01   9.7275E+00  0.000E+00  0.000E+00  0.000E+00  1.07154E+03  6.315E-01  1.000E+01  5.000E-02  1.211E+00
   1    6    8     4     3    9.7275E+00  1.2689E-01   9.6006E+00  0.000E+00  0.000E+00  0.000E+00  1.06381E+03  6.256E-01  1.000E+01  3.500E-02  1.209E+00
   1    6    8     5     1    1.0432E+01  2.2686E-01   1.0205E+01  0.000E+00  0.000E+00  0.000E+00  1.05868E+03  6.790E-01  1.542E+01  6.166E-02  1.226E+00
   1    7    7     5     2    1.0205E+01  2.7894E-01   9.9265E+00  0.000E+00  0.000E+00  0.000E+00  1.05417E+03  6.732E-01  1.519E+01  7.594E-02  1.224E+00
   1    8    7     5     3    9.9265E+00  1.9221E-01   9.7343E+00  0.000E+00  0.000E+00  0.000E+00  1.04992E+03  6.676E-01  1.497E+01  5.241E-02  1.223E+00
   1    8    6     5     4    9.7343E+00  1.3577E-01   9.5985E+00  0.000E+00  0.000E+00  0.000E+00  1.04691E+03  6.637E-01  1.482E+01  3.706E-02  1.221E+00
   1    9    6     6     1    2.6191E+01  2.5512E-01   2.5936E+01  0.000E+00  0.000E+00  0.000E+00  1.04398E+03  1.252E+00  1.200E+01  6.000E-02  1.417E+00
   1   10    7     6     2    2.5936E+01  2.5468E-01   2.5681E+01  0.000E+00  0.000E+00  0.000E+00  1.03943E+03  1.245E+00  1.200E+01  6.000E-02  1.415E+00
   1   11    7     6     3    2.5681E+01  2.5423E-01   2.5427E+01  0.000E+00  0.000E+00  0.000E+00  1.03487E+03  1.237E+00  1.200E+01  6.000E-02  1.412E+00
   1   12    7     6     4    2.5427E+01  2.5379E-01   2.5173E+01  0.000E+00  0.000E+00  0.000E+00  1.03032E+03  1.230E+00  1.200E+01  6.000E-02  1.410E+00
   1   13    7     6     5    2.5173E+01  5.3367E-03   2.5168E+01  0.000E+00  0.000E+00  0.000E+00  1.02714E+03  1.226E+00  1.200E+01  2.400E-02  7.412E-02
   1   14    9     7     1    1.5000E+02  1.1477E+00   1.4885E+02  0.000E+00  0.000E+00  0.000E+00  1.03987E+03  2.288E+00  5.530E+01  5.593E-01  6.840E-01
   1   13    8     7     2    1.4885E+02  1.6502E+00   1.4720E+02  0.000E+00  0.000E+00  0.000E+00  1.03478E+03  2.281E+00  5.526E+01  6.149E-01  8.946E-01
   1   13    7     7     3    1.4720E+02  1.5521E+00   1.4565E+02  0.000E+00  0.000E+00  0.000E+00  1.02969E+03  2.272E+00  5.523E+01  5.585E-01  9.263E-01
   1   13    6     8     1    1.7082E+02  1.0204E+00   1.6980E+02  0.000E+00  0.000E+00  0.000E+00  1.02483E+03  2.954E+00  4.284E+01  4.365E-01  7.792E-01
   1   13    5     8     2    1.6980E+02  2.5396E-01   1.6954E+02  0.000E+00  0.000E+00  0.000E+00  1.01858E+03  2.950E+00  4.278E+01  4.359E-01  1.942E-01
   1   13    4     8     3    1.6954E+02 -2.1972E+00   1.7174E+02  0.000E+00  0.000E+00  0.000E+00  1.01233E+03  2.956E+00  4.287E+01  4.368E+00 -1.677E-01
   1   13    3     8     4    1.7174E+02 -3.2640E+00   1.7500E+02  0.000E+00  0.000E+00  0.000E+00  1.00610E+03  2.974E+00  4.312E+01  4.394E+00 -2.476E-01
   1   13    2     8     5    1.7500E+02 -1.7280E+00   1.7673E+02  0.000E+00  0.000E+00  0.000E+00  9.99865E+02  2.990E+00  4.336E+01  4.418E+00 -1.304E-01
   1   13    1     8     6    1.7673E+02 -9.8794E-01   1.7772E+02  0.000E+00  0.000E+00  0.000E+00  9.94874E+02  2.999E+00  4.348E+01  2.658E+00 -1.239E-01
   1    6    8     9     1    1.1623E-03  0.0000E+00   1.1623E-03  0.000E+00  0.000E+00  0.000E+00  1.07850E+03  2.330E-03  4.000E+00  0.000E+00  1.001E+00



 UBDSV3 SAVING "     NETRECHARGE" ON UNIT 100 AT TIME STEP     5, STRESS PERIOD  10
 UBDSV3 SAVING "    NETDISCHARGE" ON UNIT 101 AT TIME STEP     5, STRESS PERIOD  10
 UBDSV3 SAVING "           GW ET" ON UNIT  61 AT TIME STEP     5, STRESS PERIOD  10
 UBDSV3 SAVING "    UZF RECHARGE" ON UNIT  61 AT TIME STEP     5, STRESS PERIOD  10
 UBDSV3 SAVING " SURFACE LEAKAGE" ON UNIT  61 AT TIME STEP     5, STRESS PERIOD  10
 UBDSV3 SAVING "       HORT+DUNN" ON UNIT  61 AT TIME STEP     5, STRESS PERIOD  10
 UBDSV3 SAVING "  STORAGE CHANGE" ON UNIT  61 AT TIME STEP     5, STRESS PERIOD  10


UNSATURATED ZONE PACKAGE VOLUMETRIC BUDGET FOR  TIME STEP     5 STRESS PERIOD   10
  ------------------------------------------------------------------------------



     CUMULATIVE VOLUMES      L**3       RATES FOR THIS TIME STEP      L**3/T
     ------------------                 ------------------------

           IN:                                      IN:
           ---                                      ---
        INFILTRATION =    16170242.4895          INFILTRATION =           0.0012

          OUT:                                     OUT:
          ----                                     ----
              UZF ET =   543201561.1497                UZF ET =           0.7499
        UZF RECHARGE =   544233837.1165          UZF RECHARGE =          22.4019

            IN - OUT = -1071265155.7767              IN - OUT =         -23.1506

          STORAGE:                                 STORAGE:
          --------                                 --------
      STORAGE CHANGE = -1071239327.2511        STORAGE CHANGE =         -23.1502

 PERCENT DISCREPANCY IS DIFFERENCE BETWEEN IN-OUT MINUS CHANGE IN STORAGE
 DIVIDED BY THE AVERAGE OF IN AND OUT TIMES 100

 PERCENT DISCREPANCY =          -0.00     PERCENT DISCREPANCY =          -0.00






1
  VOLUMETRIC BUDGET FOR ENTIRE MODEL AT END OF TIME STEP    5, STRESS PERIOD  10
  ------------------------------------------------------------------------------

     CUMULATIVE VOLUMES      L**3       RATES FOR THIS TIME STEP      L**3/T
     ------------------                 ------------------------

           IN:                                      IN:
           ---                                      ---
             STORAGE     =    32331814.0000               STORAGE     =           0.4715
       CONSTANT HEAD     =           0.0000         CONSTANT HEAD     =           0.0000
               WELLS     =           0.0000                 WELLS     =           0.0000
     HEAD DEP BOUNDS     =     5956216.5000       HEAD DEP BOUNDS     =           0.2730
      STREAM LEAKAGE     =   253052672.0000        STREAM LEAKAGE     =          11.4552
        UZF RECHARGE     =   544233856.0000          UZF RECHARGE     =          22.4019
               GW ET     =           0.0000                 GW ET     =           0.0000
     SURFACE LEAKAGE     =           0.0000       SURFACE LEAKAGE     =           0.0000
    SUPPLEMENTARY WELLS  =           0.0000      SUPPLEMENTARY WELLS  =           0.0000

                TOTAL IN =   835574528.0000                  TOTAL IN =          34.6015

          OUT:                                     OUT:
          ----                                     ----
             STORAGE     =   535356320.0000               STORAGE     =          23.5511
       CONSTANT HEAD     =           0.0000         CONSTANT HEAD     =           0.0000
               WELLS     =           0.0000                 WELLS     =           0.0000
     HEAD DEP BOUNDS     =     6221033.0000       HEAD DEP BOUNDS     =           0.2753
      STREAM LEAKAGE     =   215710208.0000        STREAM LEAKAGE     =           8.1771
        UZF RECHARGE     =           0.0000          UZF RECHARGE     =           0.0000
               GW ET     =    78162808.0000                 GW ET     =           2.5947
     SURFACE LEAKAGE     =           0.0000       SURFACE LEAKAGE     =           0.0000
    SUPPLEMENTARY WELLS  =       35681.0508      SUPPLEMENTARY WELLS  =       4.5091E-05

               TOTAL OUT =   835486080.0000                 TOTAL OUT =          34.5982

                IN - OUT =       88448.0000                  IN - OUT =       3.2539E-03

     PERCENT DISCREPANCY =           0.01         PERCENT DISCREPANCY =           0.01






         TIME SUMMARY AT END OF TIME STEP    5 IN STRESS PERIOD   10
                    SECONDS     MINUTES      HOURS       DAYS        YEARS
                    -----------------------------------------------------------
   TIME STEP LENGTH  87600.      1460.0      24.333      1.0139     2.77588E-03
 STRESS PERIOD TIME 4.38000E+05  7300.0      121.67      5.0694     1.38794E-02
         TOTAL TIME 2.15484E+07 3.59140E+05  5985.7      249.40     0.68283    
1
 
 SOLVING FOR HEAD 
                                                   Max.-Head-Change                         Max.-Flux-Residual
  Residual-Control   Outer-Iter.   Inner-Iter.     Column Row Layer    Maximum-Head-Change  Column Row Layer    Maximum-Flux-Residual          L2-NORM 
          0                 1           2             5   13     1       0.1543224715E-01       5   13    1         0.8268643166E+00      0.2236370214E+01
          0                 2           2             1    2     1       0.2253859477E-02       5   13    1        -0.6596432974E-01      0.3854328716E+00
          0                 3           2             1    2     1       0.1012017704E-02       1    2    1         0.2630477007E-01      0.1377505980E+00
          0                 4           2             1    2     1       0.4543232614E-03       1    2    1         0.1181041407E-01      0.5972004032E-01
          0                 5           2             1    2     1       0.2039430541E-03       1    2    1         0.5301881725E-02      0.2662639437E-01
          0                 6           1             1    2     1       0.9154613705E-04       1    2    1         0.2379958147E-02      0.1191856444E-01
          0                 7           1             1    2     1       0.4109283549E-04       1    2    1         0.1068313221E-02      0.5358181148E-02
          0                 8           1             1    2     1       0.1844549211E-04       7    6    1         0.6240571161E-03      0.2482055849E-02
          0                 9           1             7    6     1      -0.1023385892E-04       7    6    1        -0.5743614583E-03      0.1234249420E-02
          0                10           1             7    6     1       0.6728898265E-05       7    6    1         0.3810663591E-03      0.6640932633E-03

    ------------------------------------------------
       NWT REQUIRED           10 OUTER ITERATIONS 
       AND A TOTAL OF         15 INNER ITERATIONS.
    ------------------------------------------------

 NO OUTPUT CONTROL FOR STRESS PERIOD   10   TIME STEP    6
 
 SOLVING FOR HEAD 
     PET DIFF ERROR     6    7   -0.6653808111E-08    0.1499999902E-07
     PET DIFF ERROR     6    8   -0.6653808194E-08    0.1499999902E-07
                                                   Max.-Head-Change                         Max.-Flux-Residual
  Residual-Control   Outer-Iter.   Inner-Iter.     Column Row Layer    Maximum-Head-Change  Column Row Layer    Maximum-Flux-Residual          L2-NORM 
          0                 1           2             5   13     1       0.1498263816E-01       5   13    1         0.8029551859E+00      0.2161887993E+01
          0                 2           2             1    2     1       0.2250302209E-02       5   13    1        -0.6560562957E-01      0.3811857104E+00
          0                 3           2             1    2     1       0.1010421411E-02       1    2    1         0.2626326580E-01      0.1375538648E+00
          0                 4           2             1    2     1       0.4536066218E-03       1    2    1         0.1179178636E-01      0.5964505684E-01
          0                 5           2             1    2     1       0.2036212717E-03       1    2    1         0.5293518476E-02      0.2658790260E-01
          0                 6           1             1    2     1       0.9140164189E-04       1    2    1         0.2376202821E-02      0.1189875432E-01
          0                 7           1             1    2     1       0.4102794943E-04       1    2    1         0.1066626900E-02      0.5328372387E-02
          0                 8           1             1    2     1       0.1841635417E-04       1    2    1         0.4787817993E-03      0.2386445759E-02
          0                 9           1             1    2     1       0.8266596171E-05       1    2    1         0.2149122619E-03      0.1068906096E-02

    ------------------------------------------------
       NWT REQUIRED            9 OUTER ITERATIONS 
       AND A TOTAL OF         14 INNER ITERATIONS.
    ------------------------------------------------

 NO OUTPUT CONTROL FOR STRESS PERIOD   10   TIME STEP    7
 
 SOLVING FOR HEAD 
     PET DIFF ERROR     6    7   -0.2574738771E-08    0.1499999902E-07
     PET DIFF ERROR     6    8   -0.2574738782E-08    0.1499999902E-07
                                                   Max.-Head-Change                         Max.-Flux-Residual
  Residual-Control   Outer-Iter.   Inner-Iter.     Column Row Layer    Maximum-Head-Change  Column Row Layer    Maximum-Flux-Residual          L2-NORM 
          0                 1           2             5   13     1       0.1454291009E-01       5   13    1         0.7795565557E+00      0.2095046269E+01
          0                 2           2             1    2     1       0.2246754215E-02       4   13    1         0.6583505813E-01      0.3847797940E+00
     PET DIFF ERROR     6    7   -0.7984834734E-08    0.1499999902E-07
     PET DIFF ERROR     6    8   -0.7984834817E-08    0.1499999902E-07
          0                 3           2             7    6     1      -0.7024062878E-01       7    6    1        -0.3870409813E+01      0.3872847668E+01
          0                 4           2             7    6     1       0.7227122088E-01       7    6    1         0.4019034314E+01      0.4019679349E+01
          0                 5           2             7    6     1      -0.1559446921E-02       7    6    1        -0.8802101940E-01      0.9438684906E-01
          0                 6           2             7    6     1      -0.2848014821E-03       7    6    1        -0.1606004197E-01      0.2024360797E-01
          0                 7           1             7    6     1      -0.5207889581E-04       7    6    1        -0.2934097853E-02      0.6097815190E-02
          0                 8           1             1    2     1       0.1838729202E-04       7    6    1        -0.5367125516E-03      0.2444941073E-02
          0                 9           1             1    2     1       0.8253545627E-05       1    2    1         0.2145730873E-03      0.1072496103E-02

    ------------------------------------------------
       NWT REQUIRED            9 OUTER ITERATIONS 
       AND A TOTAL OF         15 INNER ITERATIONS.
    ------------------------------------------------

 NO OUTPUT CONTROL FOR STRESS PERIOD   10   TIME STEP    8
 
 SOLVING FOR HEAD 
                                                   Max.-Head-Change                         Max.-Flux-Residual
  Residual-Control   Outer-Iter.   Inner-Iter.     Column Row Layer    Maximum-Head-Change  Column Row Layer    Maximum-Flux-Residual          L2-NORM 
          0                 1           2             5   13     1       0.1411404971E-01       5   13    1         0.7566720360E+00      0.2034841117E+01
          0                 2           2             1    2     1       0.2243253966E-02       4   13    1         0.7290835636E-01      0.3867344143E+00
     PET DIFF ERROR     6    7   -0.6192635355E-08    0.1499999902E-07
     PET DIFF ERROR     6    8   -0.6192635495E-08    0.1499999902E-07
          0                 3           2             7    6     1      -0.7249714862E-01       7    6    1        -0.3994743011E+01      0.3997101318E+01
          0                 4           2             7    6     1       0.7470878096E-01       7    6    1         0.4154589706E+01      0.4155129748E+01
          0                 5           2             7    6     1      -0.1707272086E-02       7    6    1        -0.9633322903E-01      0.1022980797E+00
          0                 6           2             7    6     1      -0.3119444732E-03       7    6    1        -0.1758495958E-01      0.2147608134E-01
          0                 7           1             7    6     1      -0.5706860245E-04       7    6    1        -0.3214187435E-02      0.6232042714E-02
          0                 8           1             1    2     1       0.1835862029E-04       7    6    1        -0.5882176290E-03      0.2453848094E-02
          0                 9           1             1    2     1       0.8240670411E-05       1    2    1         0.2142384786E-03      0.1072087582E-02

    ------------------------------------------------
       NWT REQUIRED            9 OUTER ITERATIONS 
       AND A TOTAL OF         15 INNER ITERATIONS.
    ------------------------------------------------

 NO OUTPUT CONTROL FOR STRESS PERIOD   10   TIME STEP    9
 
 SOLVING FOR HEAD 
     PET DIFF ERROR     6    7   -0.2339090649E-08    0.1499999902E-07
     PET DIFF ERROR     6    8   -0.2339090668E-08    0.1499999902E-07
                                                   Max.-Head-Change                         Max.-Flux-Residual
  Residual-Control   Outer-Iter.   Inner-Iter.     Column Row Layer    Maximum-Head-Change  Column Row Layer    Maximum-Flux-Residual          L2-NORM 
          0                 1           2             5   13     1       0.1369883504E-01       5   13    1         0.7345054131E+00      0.1979613986E+01
          0                 2           2             1    2     1       0.2239758452E-02       4   13    1         0.7311292653E-01      0.3858371927E+00
     PET DIFF ERROR     6    7   -0.7593418723E-08    0.1499999902E-07
     PET DIFF ERROR     6    8   -0.7593418805E-08    0.1499999902E-07
          0                 3           2             7    6     1      -0.7048529453E-01       7    6    1        -0.3883895505E+01      0.3886314543E+01
          0                 4           2             7    6     1       0.7253656230E-01       7    6    1         0.4033794387E+01      0.4034405584E+01
          0                 5           2             7    6     1      -0.1576386460E-02       7    6    1        -0.8897356568E-01      0.9526632678E-01
          0                 6           2             7    6     1      -0.2879116986E-03       7    6    1        -0.1623478291E-01      0.2036560272E-01
          0                 7           1             7    6     1      -0.5265062435E-04       7    6    1        -0.2966191983E-02      0.6101388222E-02
          0                 8           1             1    2     1       0.1832998683E-04       7    6    1        -0.5426140426E-03      0.2440294055E-02
          0                 9           1             1    2     1       0.8227811952E-05       1    2    1         0.2139043105E-03      0.1069904877E-02

    ------------------------------------------------
       NWT REQUIRED            9 OUTER ITERATIONS 
       AND A TOTAL OF         15 INNER ITERATIONS.
    ------------------------------------------------

 OUTPUT CONTROL FOR STRESS PERIOD   10   TIME STEP   10
    PRINT BUDGET
    SAVE BUDGET
 UBUDSV SAVING "         STORAGE" ON UNIT102 AT TIME STEP    10, STRESS PERIOD   10
 UBUDSV SAVING "   CONSTANT HEAD" ON UNIT102 AT TIME STEP    10, STRESS PERIOD   10
 UBUDSV SAVING "FLOW RIGHT FACE " ON UNIT102 AT TIME STEP    10, STRESS PERIOD   10
 UBUDSV SAVING "FLOW FRONT FACE " ON UNIT102 AT TIME STEP    10, STRESS PERIOD   10

  HEAD DEP BOUNDS   PERIOD   10   STEP    10
 BOUNDARY      1   LAYER   1   ROW    13   COL     1   RATE   -0.277684    
 BOUNDARY      2   LAYER   1   ROW    14   COL     9   RATE    0.272926    



 STREAM LISTING     PERIOD     10   STEP       10

 LAYER ROW COL. STREAM  RCH.  FLOW INTO     FLOW TO   FLOW OUT OF   OVRLND.     DIRECT     STREAM       STREAM     STREAM     STREAM   STREAMBED  STREAMBED
                SEG.NO.  NO.  STRM. RCH.    AQUIFER    STRM. RCH.    RUNOFF     PRECIP       ET          HEAD       DEPTH      WIDTH   CONDCTNC.   GRADIENT

   1    1    1     1     1    2.1000E+01  2.2592E-01   2.0774E+01  0.000E+00  0.000E+00  0.000E+00  1.09416E+03  1.115E+00  1.220E+01  5.490E-02  1.372E+00
   1    2    2     1     2    2.0774E+01  3.4916E-01   2.0425E+01  0.000E+00  0.000E+00  0.000E+00  1.08917E+03  1.110E+00  1.214E+01  8.495E-02  1.370E+00
   1    3    3     1     3    2.0425E+01  2.9709E-01   2.0128E+01  0.000E+00  0.000E+00  0.000E+00  1.08352E+03  1.105E+00  1.206E+01  7.238E-02  1.368E+00
   1    3    4     1     4    2.0128E+01  2.7299E-01   1.9855E+01  0.000E+00  0.000E+00  0.000E+00  1.07851E+03  1.100E+00  1.200E+01  6.659E-02  1.367E+00
   1    4    5     2     1    1.7855E+01  3.1056E-01   1.7544E+01  0.000E+00  0.000E+00  0.000E+00  1.07292E+03  9.816E-01  1.200E+01  7.800E-02  1.327E+00
   1    5    6     2     2    1.7544E+01  2.3834E-01   1.7306E+01  0.000E+00  0.000E+00  0.000E+00  1.06748E+03  9.724E-01  1.200E+01  6.000E-02  1.324E+00
   1    6    6     2     3    1.7306E+01  2.3786E-01   1.7068E+01  0.000E+00  0.000E+00  0.000E+00  1.06276E+03  9.644E-01  1.200E+01  6.000E-02  1.321E+00
   1    7    6     2     4    1.7068E+01  2.3738E-01   1.6831E+01  0.000E+00  0.000E+00  0.000E+00  1.05803E+03  9.564E-01  1.200E+01  6.000E-02  1.319E+00
   1    8    6     2     5    1.6831E+01  2.3690E-01   1.6594E+01  0.000E+00  0.000E+00  0.000E+00  1.05331E+03  9.483E-01  1.200E+01  6.000E-02  1.316E+00
   1    3    5     3     1    2.0000E+00  2.8252E-01   1.7175E+00  0.000E+00  0.000E+00  0.000E+00  1.07555E+03  1.909E+00  9.636E+00  7.227E-02  1.955E+00
   1    3    6     3     2    1.7175E+00  2.4905E-01   1.4684E+00  0.000E+00  0.000E+00  0.000E+00  1.07264E+03  1.727E+00  8.909E+00  6.682E-02  1.864E+00
   1    3    7     3     3    1.4684E+00  1.9718E-01   1.2712E+00  0.000E+00  0.000E+00  0.000E+00  1.06987E+03  1.555E+00  8.218E+00  5.547E-02  1.777E+00
   1    4    8     3     4    1.2712E+00  2.2567E-01   1.0456E+00  0.000E+00  0.000E+00  0.000E+00  1.06682E+03  1.364E+00  7.455E+00  6.709E-02  1.682E+00
   1    5    8     3     5    1.0456E+00  1.5790E-01   8.8768E-01  0.000E+00  0.000E+00  0.000E+00  1.06362E+03  1.164E+00  6.655E+00  4.991E-02  1.582E+00
   1    6    8     3     6    8.8768E-01  5.5980E-02   8.3170E-01  0.000E+00  0.000E+00  0.000E+00  1.06158E+03  1.036E+00  6.145E+00  1.844E-02  1.518E+00
   1    5   10     4     1    1.0000E+01  9.0919E-02   9.9091E+00  0.000E+00  0.000E+00  0.000E+00  1.07836E+03  6.368E-01  1.000E+01  2.500E-02  1.212E+00
   1    5    9     4     2    9.9091E+00  1.8158E-01   9.7275E+00  0.000E+00  0.000E+00  0.000E+00  1.07154E+03  6.315E-01  1.000E+01  5.000E-02  1.211E+00
   1    6    8     4     3    9.7275E+00  1.2689E-01   9.6006E+00  0.000E+00  0.000E+00  0.000E+00  1.06381E+03  6.256E-01  1.000E+01  3.500E-02  1.209E+00
   1    6    8     5     1    1.0432E+01  2.2686E-01   1.0205E+01  0.000E+00  0.000E+00  0.000E+00  1.05868E+03  6.790E-01  1.542E+01  6.166E-02  1.226E+00
   1    7    7     5     2    1.0205E+01  2.7894E-01   9.9265E+00  0.000E+00  0.000E+00  0.000E+00  1.05417E+03  6.732E-01  1.519E+01  7.594E-02  1.224E+00
   1    8    7     5     3    9.9265E+00  1.9221E-01   9.7343E+00  0.000E+00  0.000E+00  0.000E+00  1.04992E+03  6.676E-01  1.497E+01  5.241E-02  1.223E+00
   1    8    6     5     4    9.7343E+00  1.3577E-01   9.5985E+00  0.000E+00  0.000E+00  0.000E+00  1.04691E+03  6.637E-01  1.482E+01  3.706E-02  1.221E+00
   1    9    6     6     1    2.5285E+01  2.5354E-01   2.5031E+01  0.000E+00  0.000E+00  0.000E+00  1.04395E+03  1.226E+00  1.200E+01  6.000E-02  1.409E+00
   1   10    7     6     2    2.5031E+01  2.5310E-01   2.4778E+01  0.000E+00  0.000E+00  0.000E+00  1.03940E+03  1.218E+00  1.200E+01  6.000E-02  1.406E+00
   1   11    7     6     3    2.4778E+01  2.5265E-01   2.4526E+01  0.000E+00  0.000E+00  0.000E+00  1.03485E+03  1.211E+00  1.200E+01  6.000E-02  1.404E+00
   1   12    7     6     4    2.4526E+01  2.5220E-01   2.4273E+01  0.000E+00  0.000E+00  0.000E+00  1.03029E+03  1.203E+00  1.200E+01  6.000E-02  1.401E+00
   1   13    7     6     5    2.4273E+01  3.4233E-03   2.4270E+01  0.000E+00  0.000E+00  0.000E+00  1.02711E+03  1.200E+00  1.200E+01  2.400E-02  4.755E-02
   1   14    9     7     1    1.5000E+02  1.1473E+00   1.4885E+02  0.000E+00  0.000E+00  0.000E+00  1.03987E+03  2.288E+00  5.530E+01  5.593E-01  6.837E-01
   1   13    8     7     2    1.4885E+02  1.6528E+00   1.4720E+02  0.000E+00  0.000E+00  0.000E+00  1.03478E+03  2.281E+00  5.526E+01  6.149E-01  8.960E-01
   1   13    7     7     3    1.4720E+02  1.5224E+00   1.4568E+02  0.000E+00  0.000E+00  0.000E+00  1.02969E+03  2.272E+00  5.523E+01  5.585E-01  9.085E-01
   1   13    6     8     1    1.6995E+02  9.8891E-01   1.6896E+02  0.000E+00  0.000E+00  0.000E+00  1.02482E+03  2.949E+00  4.276E+01  4.357E-01  7.566E-01
   1   13    5     8     2    1.6896E+02  2.2180E-01   1.6874E+02  0.000E+00  0.000E+00  0.000E+00  1.01857E+03  2.945E+00  4.270E+01  4.351E-01  1.699E-01
   1   13    4     8     3    1.6874E+02 -2.4062E+00   1.7114E+02  0.000E+00  0.000E+00  0.000E+00  1.01233E+03  2.952E+00  4.280E+01  4.362E+00 -1.839E-01
   1   13    3     8     4    1.7114E+02 -3.4753E+00   1.7462E+02  0.000E+00  0.000E+00  0.000E+00  1.00610E+03  2.971E+00  4.308E+01  4.390E+00 -2.639E-01
   1   13    2     8     5    1.7462E+02 -1.9492E+00   1.7657E+02  0.000E+00  0.000E+00  0.000E+00  9.99863E+02  2.988E+00  4.333E+01  4.415E+00 -1.472E-01
   1   13    1     8     6    1.7657E+02 -1.1545E+00   1.7772E+02  0.000E+00  0.000E+00  0.000E+00  9.94873E+02  2.998E+00  4.347E+01  2.658E+00 -1.448E-01
   1    6    8     9     1    9.0748E-01  0.0000E+00   9.0748E-01  0.000E+00  0.000E+00  0.000E+00  1.07863E+03  1.277E-01  4.000E+00  0.000E+00  1.043E+00



 UBDSV3 SAVING "     NETRECHARGE" ON UNIT 100 AT TIME STEP    10, STRESS PERIOD  10
 UBDSV3 SAVING "    NETDISCHARGE" ON UNIT 101 AT TIME STEP    10, STRESS PERIOD  10
 UBDSV3 SAVING "           GW ET" ON UNIT  61 AT TIME STEP    10, STRESS PERIOD  10
 UBDSV3 SAVING "    UZF RECHARGE" ON UNIT  61 AT TIME STEP    10, STRESS PERIOD  10
 UBDSV3 SAVING " SURFACE LEAKAGE" ON UNIT  61 AT TIME STEP    10, STRESS PERIOD  10
 UBDSV3 SAVING "       HORT+DUNN" ON UNIT  61 AT TIME STEP    10, STRESS PERIOD  10
 UBDSV3 SAVING "  STORAGE CHANGE" ON UNIT  61 AT TIME STEP    10, STRESS PERIOD  10


UNSATURATED ZONE PACKAGE VOLUMETRIC BUDGET FOR  TIME STEP    10 STRESS PERIOD   10
  ------------------------------------------------------------------------------



     CUMULATIVE VOLUMES      L**3       RATES FOR THIS TIME STEP      L**3/T
     ------------------                 ------------------------

           IN:                                      IN:
           ---                                      ---
        INFILTRATION =    16442325.5559          INFILTRATION =           0.9075

          OUT:                                     OUT:
          ----                                     ----
              UZF ET =   543529491.1185                UZF ET =           0.7500
        UZF RECHARGE =   554059747.7811          UZF RECHARGE =          22.4492

            IN - OUT = -1081146913.3437              IN - OUT =         -22.2918

          STORAGE:                                 STORAGE:
          --------                                 --------
      STORAGE CHANGE = -1081121084.8480        STORAGE CHANGE =         -22.2918

 PERCENT DISCREPANCY IS DIFFERENCE BETWEEN IN-OUT MINUS CHANGE IN STORAGE
 DIVIDED BY THE AVERAGE OF IN AND OUT TIMES 100

 PERCENT DISCREPANCY =          -0.00     PERCENT DISCREPANCY =           0.00






1
  VOLUMETRIC BUDGET FOR ENTIRE MODEL AT END OF TIME STEP   10, STRESS PERIOD  10
  ------------------------------------------------------------------------------

     CUMULATIVE VOLUMES      L**3       RATES FOR THIS TIME STEP      L**3/T
     ------------------                 ------------------------

           IN:                                      IN:
           ---                                      ---
             STORAGE     =    32463194.0000               STORAGE     =           0.2224
       CONSTANT HEAD     =           0.0000         CONSTANT HEAD     =           0.0000
               WELLS     =           0.0000                 WELLS     =           0.0000
     HEAD DEP BOUNDS     =     6075764.0000       HEAD DEP BOUNDS     =           0.2729
      STREAM LEAKAGE     =   258042976.0000        STREAM LEAKAGE     =          11.3557
        UZF RECHARGE     =   554059776.0000          UZF RECHARGE     =          22.4492
               GW ET     =           0.0000                 GW ET     =           0.0000
     SURFACE LEAKAGE     =           0.0000       SURFACE LEAKAGE     =           0.0000
    SUPPLEMENTARY WELLS  =           0.0000      SUPPLEMENTARY WELLS  =           0.0000

                TOTAL IN =   850641728.0000                  TOTAL IN =          34.3003

          OUT:                                     OUT:
          ----                                     ----
             STORAGE     =   545350144.0000               STORAGE     =          22.4141
       CONSTANT HEAD     =           0.0000         CONSTANT HEAD     =           0.0000
               WELLS     =           0.0000                 WELLS     =           0.0000
     HEAD DEP BOUNDS     =     6342264.5000       HEAD DEP BOUNDS     =           0.2777
      STREAM LEAKAGE     =   219516480.0000        STREAM LEAKAGE     =           8.9852
        UZF RECHARGE     =           0.0000          UZF RECHARGE     =           0.0000
               GW ET     =    79306784.0000                 GW ET     =           2.6200
     SURFACE LEAKAGE     =           0.0000       SURFACE LEAKAGE     =           0.0000
    SUPPLEMENTARY WELLS  =       36141.0391      SUPPLEMENTARY WELLS  =           0.0000

               TOTAL OUT =   850551872.0000                 TOTAL OUT =          34.2971

                IN - OUT =       89856.0000                  IN - OUT =       3.2730E-03

     PERCENT DISCREPANCY =           0.01         PERCENT DISCREPANCY =           0.01






         TIME SUMMARY AT END OF TIME STEP   10 IN STRESS PERIOD   10
                    SECONDS     MINUTES      HOURS       DAYS        YEARS
                    -----------------------------------------------------------
   TIME STEP LENGTH  87600.      1460.0      24.333      1.0139     2.77588E-03
 STRESS PERIOD TIME 8.76000E+05  14600.      243.33      10.139     2.77588E-02
         TOTAL TIME 2.19864E+07 3.66440E+05  6107.3      254.47     0.69671    
1
 
 SOLVING FOR HEAD 
                                                   Max.-Head-Change                         Max.-Flux-Residual
  Residual-Control   Outer-Iter.   Inner-Iter.     Column Row Layer    Maximum-Head-Change  Column Row Layer    Maximum-Flux-Residual          L2-NORM 
          0                 1           2             5   13     1       0.1329468360E-01       5   13    1         0.7129060202E+00      0.1929870761E+01
          0                 2           2             1    2     1       0.2236288713E-02       4   13    1         0.7918508653E-01      0.3879718322E+00
     PET DIFF ERROR     6    7   -0.7215012361E-08    0.1499999902E-07
     PET DIFF ERROR     6    8   -0.7215012442E-08    0.1499999902E-07
          0                 3           2             7    6     1      -0.7249711472E-01       7    6    1        -0.3994746236E+01      0.3997095047E+01
          0                 4           2             7    6     1       0.7470963768E-01       7    6    1         0.4154641870E+01      0.4155216564E+01
          0                 5           2             7    6     1      -0.1708041728E-02       7    6    1        -0.9637657327E-01      0.1023327419E+00
          0                 6           2             7    6     1      -0.3120855060E-03       7    6    1        -0.1759289464E-01      0.2146602078E-01
          0                 7           1             7    6     1      -0.5709447942E-04       7    6    1        -0.3215641992E-02      0.6221197524E-02
          0                 8           1             1    2     1       0.1830156446E-04       7    6    1        -0.5884846134E-03      0.2448046373E-02
          0                 9           1             1    2     1       0.8215048785E-05       1    2    1         0.2135726067E-03      0.1069418152E-02

    ------------------------------------------------
       NWT REQUIRED            9 OUTER ITERATIONS 
       AND A TOTAL OF         15 INNER ITERATIONS.
    ------------------------------------------------

 NO OUTPUT CONTROL FOR STRESS PERIOD   10   TIME STEP   11
 
 SOLVING FOR HEAD 
                                                   Max.-Head-Change                         Max.-Flux-Residual
  Residual-Control   Outer-Iter.   Inner-Iter.     Column Row Layer    Maximum-Head-Change  Column Row Layer    Maximum-Flux-Residual          L2-NORM 
          0                 1           2             5   13     1       0.1290269787E-01       5   13    1         0.6919682024E+00      0.1884404431E+01
          0                 2           2             1    2     1       0.2232844435E-02       4   13    1         0.8118689550E-01      0.3854150406E+00
          0                 3           2             7    6     1      -0.7249708397E-01       7    6    1        -0.3994747080E+01      0.3997202278E+01
          0                 4           2             7    6     1       0.7470990187E-01       7    6    1         0.4154658821E+01      0.4155305127E+01
          0                 5           2             7    6     1      -0.1708290283E-02       7    6    1        -0.9639059741E-01      0.1023597526E+00
          0                 6           2             7    6     1      -0.3121309367E-03       7    6    1        -0.1759545536E-01      0.2146050197E-01
          0                 7           1             7    6     1      -0.5710279535E-04       7    6    1        -0.3216110228E-02      0.6215759242E-02
          0                 8           1             1    2     1       0.1827334993E-04       7    6    1        -0.5885703508E-03      0.2445184390E-02
          0                 9           1             1    2     1       0.8202378660E-05       1    2    1         0.2132433297E-03      0.1068104903E-02

    ------------------------------------------------
       NWT REQUIRED            9 OUTER ITERATIONS 
       AND A TOTAL OF         15 INNER ITERATIONS.
    ------------------------------------------------

 NO OUTPUT CONTROL FOR STRESS PERIOD   10   TIME STEP   12
 
 SOLVING FOR HEAD 
                                                   Max.-Head-Change                         Max.-Flux-Residual
  Residual-Control   Outer-Iter.   Inner-Iter.     Column Row Layer    Maximum-Head-Change  Column Row Layer    Maximum-Flux-Residual          L2-NORM 
          0                 1           2             5   13     1       0.1252207407E-01       5   13    1         0.6715879893E+00      0.1843325593E+01
          0                 2           2             1    2     1       0.2229425194E-02       4   13    1         0.8367329393E-01      0.3863213487E+00
     PET DIFF ERROR     6    7   -0.5431491197E-08    0.1499999902E-07
     PET DIFF ERROR     6    8   -0.5431491239E-08    0.1499999902E-07
          0                 3           2             7    6     1      -0.7249704522E-01       7    6    1        -0.3994747472E+01      0.3997184041E+01
          0                 4           2             7    6     1       0.7471006676E-01       7    6    1         0.4154670249E+01      0.4155187426E+01
     PET DIFF ERROR     6    7   -0.5828292447E-09    0.1499999902E-07
     PET DIFF ERROR     6    8   -0.5828292562E-09    0.1499999902E-07
          0                 5           2             7    6     1      -0.6692382084E-01       7    6    1        -0.3755814530E+01      0.3755971178E+01
          0                 6           2             7    6     1       0.6510386143E-01       7    6    1         0.3687012396E+01      0.3687081548E+01
          0                 7           2             7    6     1      -0.2192930139E-03       7    6    1        -0.1299324685E-01      0.2358034395E-01
          0                 8           1             7    6     1      -0.4156296208E-04       7    6    1        -0.2462282682E-02      0.4950473815E-02
          0                 9           1             1    2     1       0.8189800576E-05       7    6    1        -0.4666767231E-03      0.1344868967E-02

    ------------------------------------------------
       NWT REQUIRED            9 OUTER ITERATIONS 
       AND A TOTAL OF         16 INNER ITERATIONS.
    ------------------------------------------------

 NO OUTPUT CONTROL FOR STRESS PERIOD   10   TIME STEP   13
 
 SOLVING FOR HEAD 
     PET DIFF ERROR     6    7   -0.2926090721E-08    0.1499999902E-07
     PET DIFF ERROR     6    8   -0.2926090746E-08    0.1499999902E-07
                                                   Max.-Head-Change                         Max.-Flux-Residual
  Residual-Control   Outer-Iter.   Inner-Iter.     Column Row Layer    Maximum-Head-Change  Column Row Layer    Maximum-Flux-Residual          L2-NORM 
          0                 1           2             5   13     1       0.1215458292E-01       5   13    1         0.6519125554E+00      0.1805553987E+01
          0                 2           2             1    2     1       0.2226009459E-02       4   13    1         0.8200504588E-01      0.3849935530E+00
     PET DIFF ERROR     6    7   -0.7077028683E-08    0.1499999902E-07
     PET DIFF ERROR     6    8   -0.7077028858E-08    0.1499999902E-07
          0                 3           2             7    6     1      -0.6985793597E-01       7    6    1        -0.3849338812E+01      0.3851839058E+01
          0                 4           2             7    6     1       0.7186010801E-01       7    6    1         0.3996185278E+01      0.3996766832E+01
          0                 5           2             7    6     1      -0.1536329235E-02       7    6    1        -0.8672132975E-01      0.9307539677E-01
          0                 6           2             7    6     1      -0.2805557817E-03       7    6    1        -0.1582155273E-01      0.1999954369E-01
          0                 7           1             7    6     1      -0.5129824675E-04       7    6    1        -0.2890283778E-02      0.6042002380E-02
          0                 8           1             1    2     1       0.1821735907E-04       7    6    1        -0.5286540443E-03      0.2425955749E-02
          0                 9           1             1    2     1       0.8177235247E-05       1    2    1         0.2125898872E-03      0.1064541589E-02

    ------------------------------------------------
       NWT REQUIRED            9 OUTER ITERATIONS 
       AND A TOTAL OF         15 INNER ITERATIONS.
    ------------------------------------------------

 NO OUTPUT CONTROL FOR STRESS PERIOD   10   TIME STEP   14
 
 SOLVING FOR HEAD 
                                                   Max.-Head-Change                         Max.-Flux-Residual
  Residual-Control   Outer-Iter.   Inner-Iter.     Column Row Layer    Maximum-Head-Change  Column Row Layer    Maximum-Flux-Residual          L2-NORM 
          0                 1           2             5   13     1       0.1179781542E-01       5   13    1         0.6327895418E+00      0.1771543364E+01
          0                 2           2             1    2     1       0.2222639502E-02       4   13    1         0.8810677378E-01      0.3881588292E+00
          0                 3           2             7    6     1      -0.7249695073E-01       7    6    1        -0.3994747286E+01      0.3997150586E+01
          0                 4           2             7    6     1       0.7471018129E-01       7    6    1         0.4154681138E+01      0.4155338458E+01
          0                 5           2             7    6     1      -0.1708610585E-02       7    6    1        -0.9640879532E-01      0.1023568160E+00
          0                 6           2             7    6     1      -0.3121889240E-03       7    6    1        -0.1759874608E-01      0.2143973461E-01
          0                 7           1             7    6     1      -0.5711331129E-04       7    6    1        -0.3216706252E-02      0.6199795080E-02
          0                 8           1             1    2     1       0.1818975232E-04       7    6    1        -0.5886785079E-03      0.2436963199E-02
          0                 9           1             1    2     1       0.8164838243E-05       1    2    1         0.2122677028E-03      0.1064342405E-02

    ------------------------------------------------
       NWT REQUIRED            9 OUTER ITERATIONS 
       AND A TOTAL OF         15 INNER ITERATIONS.
    ------------------------------------------------

 OUTPUT CONTROL FOR STRESS PERIOD   10   TIME STEP   15
    PRINT BUDGET
    PRINT HEAD FOR ALL LAYERS
    SAVE HEAD FOR ALL LAYERS
    SAVE BUDGET
 UBUDSV SAVING "         STORAGE" ON UNIT102 AT TIME STEP    15, STRESS PERIOD   10
 UBUDSV SAVING "   CONSTANT HEAD" ON UNIT102 AT TIME STEP    15, STRESS PERIOD   10
 UBUDSV SAVING "FLOW RIGHT FACE " ON UNIT102 AT TIME STEP    15, STRESS PERIOD   10
 UBUDSV SAVING "FLOW FRONT FACE " ON UNIT102 AT TIME STEP    15, STRESS PERIOD   10

  HEAD DEP BOUNDS   PERIOD   10   STEP    15
 BOUNDARY      1   LAYER   1   ROW    13   COL     1   RATE   -0.279556    
 BOUNDARY      2   LAYER   1   ROW    14   COL     9   RATE    0.272897    



 STREAM LISTING     PERIOD     10   STEP       15

 LAYER ROW COL. STREAM  RCH.  FLOW INTO     FLOW TO   FLOW OUT OF   OVRLND.     DIRECT     STREAM       STREAM     STREAM     STREAM   STREAMBED  STREAMBED
                SEG.NO.  NO.  STRM. RCH.    AQUIFER    STRM. RCH.    RUNOFF     PRECIP       ET          HEAD       DEPTH      WIDTH   CONDCTNC.   GRADIENT

   1    1    1     1     1    2.1000E+01  2.2592E-01   2.0774E+01  0.000E+00  0.000E+00  0.000E+00  1.09416E+03  1.115E+00  1.220E+01  5.490E-02  1.372E+00
   1    2    2     1     2    2.0774E+01  3.4916E-01   2.0425E+01  0.000E+00  0.000E+00  0.000E+00  1.08917E+03  1.110E+00  1.214E+01  8.495E-02  1.370E+00
   1    3    3     1     3    2.0425E+01  2.9709E-01   2.0128E+01  0.000E+00  0.000E+00  0.000E+00  1.08352E+03  1.105E+00  1.206E+01  7.238E-02  1.368E+00
   1    3    4     1     4    2.0128E+01  2.7299E-01   1.9855E+01  0.000E+00  0.000E+00  0.000E+00  1.07851E+03  1.100E+00  1.200E+01  6.659E-02  1.367E+00
   1    4    5     2     1    1.7855E+01  3.1056E-01   1.7544E+01  0.000E+00  0.000E+00  0.000E+00  1.07292E+03  9.816E-01  1.200E+01  7.800E-02  1.327E+00
   1    5    6     2     2    1.7544E+01  2.3834E-01   1.7306E+01  0.000E+00  0.000E+00  0.000E+00  1.06748E+03  9.724E-01  1.200E+01  6.000E-02  1.324E+00
   1    6    6     2     3    1.7306E+01  2.3786E-01   1.7068E+01  0.000E+00  0.000E+00  0.000E+00  1.06276E+03  9.644E-01  1.200E+01  6.000E-02  1.321E+00
   1    7    6     2     4    1.7068E+01  2.3738E-01   1.6831E+01  0.000E+00  0.000E+00  0.000E+00  1.05803E+03  9.564E-01  1.200E+01  6.000E-02  1.319E+00
   1    8    6     2     5    1.6831E+01  2.3690E-01   1.6594E+01  0.000E+00  0.000E+00  0.000E+00  1.05331E+03  9.483E-01  1.200E+01  6.000E-02  1.316E+00
   1    3    5     3     1    2.0000E+00  2.8252E-01   1.7175E+00  0.000E+00  0.000E+00  0.000E+00  1.07555E+03  1.909E+00  9.636E+00  7.227E-02  1.955E+00
   1    3    6     3     2    1.7175E+00  2.4905E-01   1.4684E+00  0.000E+00  0.000E+00  0.000E+00  1.07264E+03  1.727E+00  8.909E+00  6.682E-02  1.864E+00
   1    3    7     3     3    1.4684E+00  1.9718E-01   1.2712E+00  0.000E+00  0.000E+00  0.000E+00  1.06987E+03  1.555E+00  8.218E+00  5.547E-02  1.777E+00
   1    4    8     3     4    1.2712E+00  2.2567E-01   1.0456E+00  0.000E+00  0.000E+00  0.000E+00  1.06682E+03  1.364E+00  7.455E+00  6.709E-02  1.682E+00
   1    5    8     3     5    1.0456E+00  1.5790E-01   8.8768E-01  0.000E+00  0.000E+00  0.000E+00  1.06362E+03  1.164E+00  6.655E+00  4.991E-02  1.582E+00
   1    6    8     3     6    8.8768E-01  5.5980E-02   8.3170E-01  0.000E+00  0.000E+00  0.000E+00  1.06158E+03  1.036E+00  6.145E+00  1.844E-02  1.518E+00
   1    5   10     4     1    1.0000E+01  9.0919E-02   9.9091E+00  0.000E+00  0.000E+00  0.000E+00  1.07836E+03  6.368E-01  1.000E+01  2.500E-02  1.212E+00
   1    5    9     4     2    9.9091E+00  1.8158E-01   9.7275E+00  0.000E+00  0.000E+00  0.000E+00  1.07154E+03  6.315E-01  1.000E+01  5.000E-02  1.211E+00
   1    6    8     4     3    9.7275E+00  1.2689E-01   9.6006E+00  0.000E+00  0.000E+00  0.000E+00  1.06381E+03  6.256E-01  1.000E+01  3.500E-02  1.209E+00
   1    6    8     5     1    1.0432E+01  2.2686E-01   1.0205E+01  0.000E+00  0.000E+00  0.000E+00  1.05868E+03  6.790E-01  1.542E+01  6.166E-02  1.226E+00
   1    7    7     5     2    1.0205E+01  2.7894E-01   9.9265E+00  0.000E+00  0.000E+00  0.000E+00  1.05417E+03  6.732E-01  1.519E+01  7.594E-02  1.224E+00
   1    8    7     5     3    9.9265E+00  1.9221E-01   9.7343E+00  0.000E+00  0.000E+00  0.000E+00  1.04992E+03  6.676E-01  1.497E+01  5.241E-02  1.223E+00
   1    8    6     5     4    9.7343E+00  1.3577E-01   9.5985E+00  0.000E+00  0.000E+00  0.000E+00  1.04691E+03  6.637E-01  1.482E+01  3.706E-02  1.221E+00
   1    9    6     6     1    2.5209E+01  2.5341E-01   2.4955E+01  0.000E+00  0.000E+00  0.000E+00  1.04395E+03  1.223E+00  1.200E+01  6.000E-02  1.408E+00
   1   10    7     6     2    2.4955E+01  2.5296E-01   2.4703E+01  0.000E+00  0.000E+00  0.000E+00  1.03940E+03  1.216E+00  1.200E+01  6.000E-02  1.405E+00
   1   11    7     6     3    2.4703E+01  2.5252E-01   2.4450E+01  0.000E+00  0.000E+00  0.000E+00  1.03484E+03  1.209E+00  1.200E+01  6.000E-02  1.403E+00
   1   12    7     6     4    2.4450E+01  2.5207E-01   2.4198E+01  0.000E+00  0.000E+00  0.000E+00  1.03029E+03  1.201E+00  1.200E+01  6.000E-02  1.400E+00
   1   13    7     6     5    2.4198E+01  2.2922E-03   2.4196E+01  0.000E+00  0.000E+00  0.000E+00  1.02711E+03  1.197E+00  1.200E+01  2.400E-02  3.184E-02
   1   14    9     7     1    1.5000E+02  1.1468E+00   1.4885E+02  0.000E+00  0.000E+00  0.000E+00  1.03987E+03  2.288E+00  5.530E+01  5.593E-01  6.835E-01
   1   13    8     7     2    1.4885E+02  1.6540E+00   1.4720E+02  0.000E+00  0.000E+00  0.000E+00  1.03478E+03  2.281E+00  5.526E+01  6.149E-01  8.967E-01
   1   13    7     7     3    1.4720E+02  1.4973E+00   1.4570E+02  0.000E+00  0.000E+00  0.000E+00  1.02969E+03  2.272E+00  5.523E+01  5.585E-01  8.936E-01
   1   13    6     8     1    1.6990E+02  9.6464E-01   1.6893E+02  0.000E+00  0.000E+00  0.000E+00  1.02482E+03  2.948E+00  4.275E+01  4.357E-01  7.381E-01
   1   13    5     8     2    1.6893E+02  1.9641E-01   1.6874E+02  0.000E+00  0.000E+00  0.000E+00  1.01857E+03  2.945E+00  4.270E+01  4.351E-01  1.505E-01
   1   13    4     8     3    1.6874E+02 -2.5362E+00   1.7127E+02  0.000E+00  0.000E+00  0.000E+00  1.01233E+03  2.952E+00  4.281E+01  4.362E+00 -1.938E-01
   1   13    3     8     4    1.7127E+02 -3.6046E+00   1.7488E+02  0.000E+00  0.000E+00  0.000E+00  1.00610E+03  2.972E+00  4.310E+01  4.392E+00 -2.736E-01
   1   13    2     8     5    1.7488E+02 -2.0913E+00   1.7697E+02  0.000E+00  0.000E+00  0.000E+00  9.99865E+02  2.990E+00  4.336E+01  4.419E+00 -1.578E-01
   1   13    1     8     6    1.7697E+02 -1.2788E+00   1.7825E+02  0.000E+00  0.000E+00  0.000E+00  9.94876E+02  3.001E+00  4.352E+01  2.661E+00 -1.602E-01
   1    6    8     9     1    9.8342E-01  0.0000E+00   9.8342E-01  0.000E+00  0.000E+00  0.000E+00  1.07863E+03  1.340E-01  4.000E+00  0.000E+00  1.045E+00



 UBDSV3 SAVING "     NETRECHARGE" ON UNIT 100 AT TIME STEP    15, STRESS PERIOD  10
 UBDSV3 SAVING "    NETDISCHARGE" ON UNIT 101 AT TIME STEP    15, STRESS PERIOD  10
 UBDSV3 SAVING "           GW ET" ON UNIT  61 AT TIME STEP    15, STRESS PERIOD  10
 UBDSV3 SAVING "    UZF RECHARGE" ON UNIT  61 AT TIME STEP    15, STRESS PERIOD  10
 UBDSV3 SAVING " SURFACE LEAKAGE" ON UNIT  61 AT TIME STEP    15, STRESS PERIOD  10
 UBDSV3 SAVING "       HORT+DUNN" ON UNIT  61 AT TIME STEP    15, STRESS PERIOD  10
 UBDSV3 SAVING "  STORAGE CHANGE" ON UNIT  61 AT TIME STEP    15, STRESS PERIOD  10


UNSATURATED ZONE PACKAGE VOLUMETRIC BUDGET FOR  TIME STEP    15 STRESS PERIOD   10
  ------------------------------------------------------------------------------



     CUMULATIVE VOLUMES      L**3       RATES FOR THIS TIME STEP      L**3/T
     ------------------                 ------------------------

           IN:                                      IN:
           ---                                      ---
        INFILTRATION =    16785601.5520          INFILTRATION =           0.9834

          OUT:                                     OUT:
          ----                                     ----
              UZF ET =   543857991.0794                UZF ET =           0.7500
        UZF RECHARGE =   563900889.0297          UZF RECHARGE =          22.4788

            IN - OUT = -1090973278.5571              IN - OUT =         -22.2453

          STORAGE:                                 STORAGE:
          --------                                 --------
      STORAGE CHANGE = -1090947450.0704        STORAGE CHANGE =         -22.2453

 PERCENT DISCREPANCY IS DIFFERENCE BETWEEN IN-OUT MINUS CHANGE IN STORAGE
 DIVIDED BY THE AVERAGE OF IN AND OUT TIMES 100

 PERCENT DISCREPANCY =          -0.00     PERCENT DISCREPANCY =           0.00






1
              HEAD IN LAYER   1 AT END OF TIME STEP    15 IN STRESS PERIOD   10
  -----------------------------------------------------------------------------

           1       2       3       4       5       6       7       8       9      10
 ...................................................................................
   1  1035.91 1034.14 6999.00 6999.00 6999.00 6999.00 6999.00 6999.00 6999.00 6999.00
   2  1035.37 1033.93 1032.91 6999.00 6999.00 1034.58 1034.83 1034.94 6999.00 6999.00
   3  6999.00 1033.04 1032.48 1032.11 1032.57 1033.29 1034.06 1034.34 6999.00 6999.00
   4  1032.33 1032.23 1031.74 1031.22 1031.19 1031.22 1032.02 1033.42 1033.43 6999.00
   5  1031.84 1031.34 1030.79 1030.33 1030.37 1030.60 1030.79 1031.36 1032.16 1032.72
   6  1031.22 1030.49 1029.86 1029.45 1029.53 1029.90 1030.23 1030.86 1031.93 1033.42
   7  1030.66 1029.42 1028.78 1028.42 1028.57 1029.03 1029.52 1030.15 1031.62 6999.00
   8  6999.00 1027.87 1027.43 1027.18 1027.39 1027.93 1028.43 1029.67 1031.04 6999.00
   9  6999.00 1025.55 1025.47 1025.51 1025.87 1026.57 1027.17 1028.56 1030.27 6999.00
  10  6999.00 1022.40 1022.76 1023.41 1024.17 1025.23 1026.24 1027.92 1030.03 1030.75
  11  6999.00 1017.43 1018.36 1020.64 1022.26 1024.05 1025.71 1028.07 1030.76 6999.00
  12  1003.28 1009.04 1012.78 1016.77 1020.01 1023.03 1025.63 1029.42 1033.00 6999.00
  13   995.36 1000.34 1006.92 1012.91 1018.12 1022.61 1027.01 1032.09 1035.30 6999.00
  14  6999.00 1007.50 1010.23 1014.81 1019.52 1023.95 1028.71 1034.02 1037.82 6999.00
  15  6999.00 6999.00 1014.65 1017.36 1020.81 1023.73 6999.00 6999.00 6999.00 6999.00

 HEAD WILL BE SAVED ON UNIT   62 AT END OF TIME STEP   15, STRESS PERIOD   10
1
  VOLUMETRIC BUDGET FOR ENTIRE MODEL AT END OF TIME STEP   15, STRESS PERIOD  10
  ------------------------------------------------------------------------------

     CUMULATIVE VOLUMES      L**3       RATES FOR THIS TIME STEP      L**3/T
     ------------------                 ------------------------

           IN:                                      IN:
           ---                                      ---
             STORAGE     =    32528014.0000               STORAGE     =           0.1119
       CONSTANT HEAD     =           0.0000         CONSTANT HEAD     =           0.0000
               WELLS     =           0.0000                 WELLS     =           0.0000
     HEAD DEP BOUNDS     =     6195297.5000       HEAD DEP BOUNDS     =           0.2729
      STREAM LEAKAGE     =   262997776.0000        STREAM LEAKAGE     =          11.2801
        UZF RECHARGE     =   563900928.0000          UZF RECHARGE     =          22.4788
               GW ET     =           0.0000                 GW ET     =           0.0000
     SURFACE LEAKAGE     =           0.0000       SURFACE LEAKAGE     =           0.0000
    SUPPLEMENTARY WELLS  =           0.0000      SUPPLEMENTARY WELLS  =           0.0000

                TOTAL IN =   865622016.0000                  TOTAL IN =          34.1437

          OUT:                                     OUT:
          ----                                     ----
             STORAGE     =   554983168.0000               STORAGE     =          21.7250
       CONSTANT HEAD     =           0.0000         CONSTANT HEAD     =           0.0000
               WELLS     =           0.0000                 WELLS     =           0.0000
     HEAD DEP BOUNDS     =     6464397.5000       HEAD DEP BOUNDS     =           0.2796
      STREAM LEAKAGE     =   223590736.0000        STREAM LEAKAGE     =           9.5108
        UZF RECHARGE     =           0.0000          UZF RECHARGE     =           0.0000
               GW ET     =    80456208.0000                 GW ET     =           2.6250
     SURFACE LEAKAGE     =           0.0000       SURFACE LEAKAGE     =           0.0000
    SUPPLEMENTARY WELLS  =       36141.0430      SUPPLEMENTARY WELLS  =           0.0000

               TOTAL OUT =   865530624.0000                 TOTAL OUT =          34.1404

                IN - OUT =       91392.0000                  IN - OUT =       3.2730E-03

     PERCENT DISCREPANCY =           0.01         PERCENT DISCREPANCY =           0.01






         TIME SUMMARY AT END OF TIME STEP   15 IN STRESS PERIOD   10
                    SECONDS     MINUTES      HOURS       DAYS        YEARS
                    -----------------------------------------------------------
   TIME STEP LENGTH  87600.      1460.0      24.333      1.0139     2.77588E-03
 STRESS PERIOD TIME 1.31400E+06  21900.      365.00      15.208     4.16381E-02
         TOTAL TIME 2.24244E+07 3.73740E+05  6229.0      259.54     0.71059    
1
 
 SOLVING FOR HEAD 
                                                   Max.-Head-Change                         Max.-Flux-Residual
  Residual-Control   Outer-Iter.   Inner-Iter.     Column Row Layer    Maximum-Head-Change  Column Row Layer    Maximum-Flux-Residual          L2-NORM 
          0                 1           2             5   13     1       0.1145209063E-01       5   13    1         0.6142458432E+00      0.1740548998E+01
          0                 2           2             1    2     1       0.2219293646E-02       4   13    1         0.8997915525E-01      0.3889796452E+00
     PET DIFF ERROR     6    7   -0.4627595741E-08    0.1499999902E-07
     PET DIFF ERROR     6    8   -0.4627595779E-08    0.1499999902E-07
          0                 3           2             7    6     1      -0.7249689151E-01       7    6    1        -0.3994746529E+01      0.3997135012E+01
          0                 4           2             7    6     1       0.7471009657E-01       7    6    1         0.4154678685E+01      0.4155179515E+01
     PET DIFF ERROR     6    7   -0.7659956191E-09    0.1499999902E-07
     PET DIFF ERROR     6    8   -0.7659956195E-09    0.1499999902E-07
          0                 5           2             7    6     1      -0.6822296453E-01       7    6    1        -0.3828719495E+01      0.3828872414E+01
          0                 6           2             7    6     1       0.6648154417E-01       7    6    1         0.3765041082E+01      0.3765111145E+01
     PET DIFF ERROR     6    7   -0.9725364903E-09    0.1499999902E-07
     PET DIFF ERROR     6    8   -0.9725364973E-09    0.1499999902E-07
          0                 7           2             7    6     1      -0.6503177178E-01       7    6    1        -0.3716631530E+01      0.3716685620E+01
          0                 8           2             7    6     1       0.6377354212E-01       7    6    1         0.3677959287E+01      0.3678008378E+01
          0                 9           2             7    6     1       0.7191572350E-03       7    6    1         0.4102397607E-01      0.4493510843E-01
          0                10           2             7    6     1       0.1501516435E-03       7    6    1         0.8559851736E-02      0.9479046388E-02
                                                   Max.-Head-Change                         Max.-Flux-Residual
  Residual-Control   Outer-Iter.   Inner-Iter.     Column Row Layer    Maximum-Head-Change  Column Row Layer    Maximum-Flux-Residual          L2-NORM 
          0                11           1             7    6     1       0.3137243576E-04       7    6    1         0.1787339174E-02      0.2009041585E-02
          0                12           1             7    6     1       0.6559611967E-05       7    6    1         0.3734731943E-03      0.4328980527E-03

    ------------------------------------------------
       NWT REQUIRED           12 OUTER ITERATIONS 
       AND A TOTAL OF         22 INNER ITERATIONS.
    ------------------------------------------------

 NO OUTPUT CONTROL FOR STRESS PERIOD   10   TIME STEP   16
 
 SOLVING FOR HEAD 
     PET DIFF ERROR     6    7   -0.3157638236E-08    0.1499999902E-07
     PET DIFF ERROR     6    8   -0.3157638263E-08    0.1499999902E-07
                                                   Max.-Head-Change                         Max.-Flux-Residual
  Residual-Control   Outer-Iter.   Inner-Iter.     Column Row Layer    Maximum-Head-Change  Column Row Layer    Maximum-Flux-Residual          L2-NORM 
          0                 1           2             5   13     1       0.1111907748E-01       5   13    1         0.5963918209E+00      0.1711685874E+01
          0                 2           2             1    2     1       0.2215944189E-02       4   13    1         0.8739148747E-01      0.3870523900E+00
     PET DIFF ERROR     6    7   -0.7040600603E-08    0.1499999902E-07
     PET DIFF ERROR     6    8   -0.7040600662E-08    0.1499999902E-07
          0                 3           2             7    6     1      -0.6959324051E-01       7    6    1        -0.3834761705E+01      0.3837225516E+01
          0                 4           2             7    6     1       0.7157416856E-01       7    6    1         0.3980290562E+01      0.3980867097E+01
          0                 5           2             7    6     1      -0.1518925961E-02       7    6    1        -0.8574295812E-01      0.9211799160E-01
          0                 6           2             7    6     1      -0.2773593186E-03       7    6    1        -0.1564201035E-01      0.1983159980E-01
          0                 7           1             7    6     1      -0.5071047357E-04       7    6    1        -0.2857296603E-02      0.6009967633E-02
          0                 8           1             1    2     1       0.1813490296E-04       7    6    1        -0.5225864113E-03      0.2416570720E-02
          0                 9           1             1    2     1       0.8140207308E-05       1    2    1         0.2116275770E-03      0.1060773158E-02

    ------------------------------------------------
       NWT REQUIRED            9 OUTER ITERATIONS 
       AND A TOTAL OF         15 INNER ITERATIONS.
    ------------------------------------------------

 NO OUTPUT CONTROL FOR STRESS PERIOD   10   TIME STEP   17
 
 SOLVING FOR HEAD 
                                                   Max.-Head-Change                         Max.-Flux-Residual
  Residual-Control   Outer-Iter.   Inner-Iter.     Column Row Layer    Maximum-Head-Change  Column Row Layer    Maximum-Flux-Residual          L2-NORM 
          0                 1           2             5   13     1       0.1079588156E-01       5   13    1         0.5790450814E+00      0.1685599411E+01
          0                 2           2             1    2     1       0.2212624447E-02       4   13    1         0.9337138470E-01      0.3905453443E+00
          0                 3           2             7    6     1      -0.7249675564E-01       7    6    1        -0.3994744017E+01      0.3997106236E+01
          0                 4           2             7    6     1       0.7470970468E-01       7    6    1         0.4154661412E+01      0.4155272856E+01
          0                 5           2             7    6     1      -0.1708303847E-02       7    6    1        -0.9639179974E-01      0.1023043077E+00
          0                 6           2             7    6     1      -0.3121314777E-03       7    6    1        -0.1759556325E-01      0.2141425511E-01
          0                 7           1             7    6     1      -0.5710255394E-04       7    6    1        -0.3216110209E-02      0.6183932813E-02
          0                 8           1             1    2     1       0.1810770664E-04       7    6    1        -0.5885668995E-03      0.2429038668E-02
          0                 9           1             1    2     1       0.8127994635E-05       1    2    1         0.2113101857E-03      0.1060730691E-02

    ------------------------------------------------
       NWT REQUIRED            9 OUTER ITERATIONS 
       AND A TOTAL OF         15 INNER ITERATIONS.
    ------------------------------------------------

 NO OUTPUT CONTROL FOR STRESS PERIOD   10   TIME STEP   18
 
 SOLVING FOR HEAD 
                                                   Max.-Head-Change                         Max.-Flux-Residual
  Residual-Control   Outer-Iter.   Inner-Iter.     Column Row Layer    Maximum-Head-Change  Column Row Layer    Maximum-Flux-Residual          L2-NORM 
          0                 1           2             5   13     1       0.1048341394E-01       5   13    1         0.5622685215E+00      0.1661634828E+01
          0                 2           2             1    2     1       0.2209327978E-02       4   13    1         0.9481445303E-01      0.3912680756E+00
     PET DIFF ERROR     6    7   -0.6190037359E-08    0.1499999902E-07
     PET DIFF ERROR     6    8   -0.6190037444E-08    0.1499999902E-07
          0                 3           2             7    6     1      -0.7249668190E-01       7    6    1        -0.3994742432E+01      0.3997093003E+01
          0                 4           2             7    6     1       0.7470943624E-01       7    6    1         0.4154648745E+01      0.4155174577E+01
          0                 5           2             7    6     1      -0.1708110811E-02       7    6    1        -0.9638103869E-01      0.1022607886E+00
          0                 6           2             7    6     1      -0.3120956159E-03       7    6    1        -0.1759356499E-01      0.2140476921E-01
          0                 7           1             7    6     1      -0.5709588776E-04       7    6    1        -0.3215738900E-02      0.6178828322E-02
          0                 8           1             1    2     1       0.1808070065E-04       7    6    1        -0.5884978602E-03      0.2426533426E-02
          0                 9           1             1    2     1       0.8115867001E-05       1    2    1         0.2109950073E-03      0.1059591864E-02

    ------------------------------------------------
       NWT REQUIRED            9 OUTER ITERATIONS 
       AND A TOTAL OF         15 INNER ITERATIONS.
    ------------------------------------------------

 NO OUTPUT CONTROL FOR STRESS PERIOD   10   TIME STEP   19
 
 SOLVING FOR HEAD 
     PET DIFF ERROR     6    7   -0.1617814186E-08    0.1499999902E-07
     PET DIFF ERROR     6    8   -0.1617814196E-08    0.1499999902E-07
                                                   Max.-Head-Change                         Max.-Flux-Residual
  Residual-Control   Outer-Iter.   Inner-Iter.     Column Row Layer    Maximum-Head-Change  Column Row Layer    Maximum-Flux-Residual          L2-NORM 
          0                 1           2             5   13     1       0.1018056955E-01       5   13    1         0.5461023509E+00      0.1639137792E+01
          0                 2           2             1    2     1       0.2206075764E-02       4   13    1         0.9421185026E-01      0.3906122937E+00
          0                 3           2             7    6     1      -0.7118013188E-01       7    6    1        -0.3922204626E+01      0.3924583851E+01
          0                 4           2             7    6     1       0.7328738152E-01       7    6    1         0.4075569784E+01      0.4076215252E+01
          0                 5           2             7    6     1      -0.1621945301E-02       7    6    1        -0.9153602512E-01      0.9764342732E-01
          0                 6           2             7    6     1      -0.2962739680E-03       7    6    1        -0.1670470346E-01      0.2066636608E-01
          0                 7           1             7    6     1      -0.5418733191E-04       7    6    1        -0.3052473765E-02      0.6089872511E-02
          0                 8           1             1    2     1       0.1805405632E-04       7    6    1        -0.5584748133E-03      0.2416733848E-02
          0                 9           1             1    2     1       0.8103901939E-05       1    2    1         0.2106840537E-03      0.1057813976E-02

    ------------------------------------------------
       NWT REQUIRED            9 OUTER ITERATIONS 
       AND A TOTAL OF         15 INNER ITERATIONS.
    ------------------------------------------------

 NO OUTPUT CONTROL FOR STRESS PERIOD   10   TIME STEP   20
 
 SOLVING FOR HEAD 
                                                   Max.-Head-Change                         Max.-Flux-Residual
  Residual-Control   Outer-Iter.   Inner-Iter.     Column Row Layer    Maximum-Head-Change  Column Row Layer    Maximum-Flux-Residual          L2-NORM 
          0                 1           2             5   13     1       0.9884737304E-02       5   13    1         0.5302650174E+00      0.1618689291E+01
          0                 2           2             1    2     1       0.2202824840E-02       4   13    1         0.9736813921E-01      0.3925403369E+00
     PET DIFF ERROR     6    7   -0.5164514936E-08    0.1499999902E-07
     PET DIFF ERROR     6    8   -0.5164514977E-08    0.1499999902E-07
          0                 3           2             7    6     1      -0.7249652217E-01       7    6    1        -0.3994738574E+01      0.3997068345E+01
          0                 4           2             7    6     1       0.7470874710E-01       7    6    1         0.4154614946E+01      0.4155117104E+01
     PET DIFF ERROR     6    7   -0.1212402901E-08    0.1499999902E-07
     PET DIFF ERROR     6    8   -0.1212402907E-08    0.1499999902E-07
          0                 5           2             7    6     1      -0.6737767646E-01       7    6    1        -0.3781298494E+01      0.3781452348E+01
          0                 6           2             7    6     1       0.6558526098E-01       7    6    1         0.3714292027E+01      0.3714361887E+01
          0                 7           2             7    6     1      -0.2405315999E-03       7    6    1        -0.1421038294E-01      0.2437082198E-01
          0                 8           1             7    6     1      -0.4577132007E-04       7    6    1        -0.2703256872E-02      0.5078380591E-02
          0                 9           1             7    6     1      -0.8712752170E-05       7    6    1        -0.5144344780E-03      0.1355828601E-02

    ------------------------------------------------
       NWT REQUIRED            9 OUTER ITERATIONS 
       AND A TOTAL OF         16 INNER ITERATIONS.
    ------------------------------------------------

 NO OUTPUT CONTROL FOR STRESS PERIOD   10   TIME STEP   21
 
 SOLVING FOR HEAD 
     PET DIFF ERROR     6    7   -0.2379051174E-08    0.1499999902E-07
     PET DIFF ERROR     6    8   -0.2379051200E-08    0.1499999902E-07
                                                   Max.-Head-Change                         Max.-Flux-Residual
  Residual-Control   Outer-Iter.   Inner-Iter.     Column Row Layer    Maximum-Head-Change  Column Row Layer    Maximum-Flux-Residual          L2-NORM 
          0                 1           2             5   13     1       0.9600369331E-02       5   13    1         0.5149826308E+00      0.1599806385E+01
          0                 2           2             1    2     1       0.2199574980E-02       4   13    1         0.9546172076E-01      0.3910645611E+00
     PET DIFF ERROR     6    7   -0.7458423565E-08    0.1499999902E-07
     PET DIFF ERROR     6    8   -0.7458423639E-08    0.1499999902E-07
          0                 3           2             7    6     1      -0.7044376476E-01       7    6    1        -0.3881636518E+01      0.3884019663E+01
          0                 4           2             7    6     1       0.7249158136E-01       7    6    1         0.4031319288E+01      0.4031902607E+01
          0                 5           2             7    6     1      -0.1573344545E-02       7    6    1        -0.8880338516E-01      0.9499759744E-01
          0                 6           2             7    6     1      -0.2873493087E-03       7    6    1        -0.1620333998E-01      0.2024375976E-01
          0                 7           1             7    6     1      -0.5254656625E-04       7    6    1        -0.2960377478E-02      0.6034111445E-02
          0                 8           1             1    2     1       0.1800079692E-04       7    6    1        -0.5415379931E-03      0.2407873820E-02
          0                 9           1             1    2     1       0.8079985320E-05       1    2    1         0.2100624875E-03      0.1055229984E-02

    ------------------------------------------------
       NWT REQUIRED            9 OUTER ITERATIONS 
       AND A TOTAL OF         15 INNER ITERATIONS.
    ------------------------------------------------

 NO OUTPUT CONTROL FOR STRESS PERIOD   10   TIME STEP   22
 
 SOLVING FOR HEAD 
                                                   Max.-Head-Change                         Max.-Flux-Residual
  Residual-Control   Outer-Iter.   Inner-Iter.     Column Row Layer    Maximum-Head-Change  Column Row Layer    Maximum-Flux-Residual          L2-NORM 
          0                 1           2             5   13     1       0.9324735284E-02       5   13    1         0.5001554812E+00      0.1582581640E+01
          0                 2           2             1    2     1       0.2196368658E-02       4   13    1         0.9955616394E-01      0.3937574763E+00
          0                 3           2             7    6     1      -0.7249635276E-01       7    6    1        -0.3994734158E+01      0.3997046464E+01
          0                 4           2             7    6     1       0.7470793246E-01       7    6    1         0.4154574172E+01      0.4155146221E+01
          0                 5           2             7    6     1      -0.1706982413E-02       7    6    1        -0.9631799826E-01      0.1021868827E+00
          0                 6           2             7    6     1      -0.3118865912E-03       7    6    1        -0.1758189414E-01      0.2136690238E-01
          0                 7           1             7    6     1      -0.5705714009E-04       7    6    1        -0.3213576572E-02      0.6157769888E-02
          0                 8           1             1    2     1       0.1797452801E-04       7    6    1        -0.5880969586E-03      0.2416282372E-02
          0                 9           1             1    2     1       0.8068188833E-05       1    2    1         0.2097559135E-03      0.1054936314E-02

    ------------------------------------------------
       NWT REQUIRED            9 OUTER ITERATIONS 
       AND A TOTAL OF         15 INNER ITERATIONS.
    ------------------------------------------------

 NO OUTPUT CONTROL FOR STRESS PERIOD   10   TIME STEP   23
 
 SOLVING FOR HEAD 
                                                   Max.-Head-Change                         Max.-Flux-Residual
  Residual-Control   Outer-Iter.   Inner-Iter.     Column Row Layer    Maximum-Head-Change  Column Row Layer    Maximum-Flux-Residual          L2-NORM 
          0                 1           2             5   13     1       0.9059053641E-02       5   13    1         0.4858657534E+00      0.1566594429E+01
          0                 2           2             1    2     1       0.2193184189E-02       4   13    1         0.1005033541E+00      0.3942915986E+00
     PET DIFF ERROR     6    7   -0.7411882970E-08    0.1499999902E-07
     PET DIFF ERROR     6    8   -0.7411883052E-08    0.1499999902E-07
          0                 3           2             7    6     1      -0.7249626164E-01       7    6    1        -0.3994731589E+01      0.3997036122E+01
          0                 4           2             7    6     1       0.7470744555E-01       7    6    1         0.4154549361E+01      0.4155113972E+01
          0                 5           2             7    6     1      -0.1706608377E-02       7    6    1        -0.9629707790E-01      0.1021579396E+00
          0                 6           2             7    6     1      -0.3118174107E-03       7    6    1        -0.1757802728E-01      0.2135672464E-01
          0                 7           1             7    6     1      -0.5704433436E-04       7    6    1        -0.3212861212E-02      0.6152571591E-02
          0                 8           1             1    2     1       0.1794843743E-04       7    6    1        -0.5879645000E-03      0.2413791763E-02
          0                 9           1            10   10     1       0.8058253172E-05       1    2    1         0.2094514269E-03      0.1053808094E-02

    ------------------------------------------------
       NWT REQUIRED            9 OUTER ITERATIONS 
       AND A TOTAL OF         15 INNER ITERATIONS.
    ------------------------------------------------

 NO OUTPUT CONTROL FOR STRESS PERIOD   10   TIME STEP   24
 
 SOLVING FOR HEAD 
                                                   Max.-Head-Change                         Max.-Flux-Residual
  Residual-Control   Outer-Iter.   Inner-Iter.     Column Row Layer    Maximum-Head-Change  Column Row Layer    Maximum-Flux-Residual          L2-NORM 
          0                 1           2             6   13     1       0.8851112540E-02       5   13    1         0.4720757824E+00      0.1551818104E+01
          0                 2           2             1    2     1       0.2189999967E-02       4   13    1         0.1013767817E+00      0.3947882804E+00
          0                 3           2             7    6     1      -0.7249616824E-01       7    6    1        -0.3994728888E+01      0.3997026258E+01
          0                 4           2             7    6     1       0.7470692798E-01       7    6    1         0.4154522846E+01      0.4155105342E+01
          0                 5           2             7    6     1      -0.1706208998E-02       7    6    1        -0.9627473499E-01      0.1021353544E+00
          0                 6           2             7    6     1      -0.3117435660E-03       7    6    1        -0.1757389880E-01      0.2134647457E-01
          0                 7           1             7    6     1      -0.5703066859E-04       7    6    1        -0.3212097675E-02      0.6147297487E-02
          0                 8           1            10   10     1       0.1792254693E-04       7    6    1        -0.5878231943E-03      0.2411268362E-02
          0                 9           1            10   10     1       0.8055148794E-05      10   10    1         0.2091980217E-03      0.1052664947E-02

    ------------------------------------------------
       NWT REQUIRED            9 OUTER ITERATIONS 
       AND A TOTAL OF         15 INNER ITERATIONS.
    ------------------------------------------------

 NO OUTPUT CONTROL FOR STRESS PERIOD   10   TIME STEP   25
 
 SOLVING FOR HEAD 
                                                   Max.-Head-Change                         Max.-Flux-Residual
  Residual-Control   Outer-Iter.   Inner-Iter.     Column Row Layer    Maximum-Head-Change  Column Row Layer    Maximum-Flux-Residual          L2-NORM 
          0                 1           2             6   13     1       0.8649376770E-02       6   13    1         0.4596869925E+00      0.1538018850E+01
          0                 2           2             1    2     1       0.2186858460E-02       4   13    1         0.1021647489E+00      0.3952230567E+00
     PET DIFF ERROR     6    7   -0.6698607362E-08    0.1499999902E-07
     PET DIFF ERROR     6    8   -0.6698607446E-08    0.1499999902E-07
          0                 3           2             7    6     1      -0.7249607193E-01       7    6    1        -0.3994726033E+01      0.3997016771E+01
          0                 4           2             7    6     1       0.7470638032E-01       7    6    1         0.4154494658E+01      0.4155027209E+01
          0                 5           2             7    6     1      -0.1705784553E-02       7    6    1        -0.9625098548E-01      0.1020909784E+00
          0                 6           2             7    6     1      -0.3116651050E-03       7    6    1        -0.1756951152E-01      0.2133574802E-01
          0                 7           1             7    6     1      -0.5701615202E-04       7    6    1        -0.3211286468E-02      0.6142202423E-02
          0                 8           1            10   10     1       0.1791564462E-04       7    6    1        -0.5876730818E-03      0.2408850820E-02
          0                 9           1            10   10     1       0.8052033661E-05      10   10    1         0.2091173989E-03      0.1051570059E-02

    ------------------------------------------------
       NWT REQUIRED            9 OUTER ITERATIONS 
       AND A TOTAL OF         15 INNER ITERATIONS.
    ------------------------------------------------

 NO OUTPUT CONTROL FOR STRESS PERIOD   10   TIME STEP   26
 
 SOLVING FOR HEAD 
     PET DIFF ERROR     6    7   -0.1703730711E-08    0.1499999902E-07
     PET DIFF ERROR     6    8   -0.1703730719E-08    0.1499999902E-07
                                                   Max.-Head-Change                         Max.-Flux-Residual
  Residual-Control   Outer-Iter.   Inner-Iter.     Column Row Layer    Maximum-Head-Change  Column Row Layer    Maximum-Flux-Residual          L2-NORM 
          0                 1           2             6   13     1       0.8452667301E-02       6   13    1         0.4491929005E+00      0.1525376617E+01
          0                 2           2             1    2     1       0.2183716652E-02       4   13    1         0.1008454147E+00      0.3941292592E+00
     PET DIFF ERROR     6    7   -0.7655870540E-08    0.1499999902E-07
     PET DIFF ERROR     6    8   -0.7655870621E-08    0.1499999902E-07
          0                 3           2             7    6     1      -0.7110063765E-01       7    6    1        -0.3917841463E+01      0.3920168501E+01
          0                 4           2             7    6     1       0.7319890406E-01       7    6    1         0.4070665042E+01      0.4071248060E+01
          0                 5           2             7    6     1      -0.1614263637E-02       7    6    1        -0.9110483529E-01      0.9716265200E-01
          0                 6           2             7    6     1      -0.2948601276E-03       7    6    1        -0.1662540527E-01      0.2055077793E-01
          0                 7           1             7    6     1      -0.5392683147E-04       7    6    1        -0.3037874306E-02      0.6048135781E-02
          0                 8           1            10   10     1       0.1790871129E-04       7    6    1        -0.5557841157E-03      0.2398768844E-02
          0                 9           1            10   10     1       0.8048904021E-05      10   10    1         0.2090364087E-03      0.1049837669E-02

    ------------------------------------------------
       NWT REQUIRED            9 OUTER ITERATIONS 
       AND A TOTAL OF         15 INNER ITERATIONS.
    ------------------------------------------------

 NO OUTPUT CONTROL FOR STRESS PERIOD   10   TIME STEP   27
 
 SOLVING FOR HEAD 
                                                   Max.-Head-Change                         Max.-Flux-Residual
  Residual-Control   Outer-Iter.   Inner-Iter.     Column Row Layer    Maximum-Head-Change  Column Row Layer    Maximum-Flux-Residual          L2-NORM 
          0                 1           2             6   13     1       0.8261840709E-02       6   13    1         0.4390296296E+00      0.1513698502E+01
          0                 2           2             1    2     1       0.2180595696E-02       4   13    1         0.1035892156E+00      0.3960637600E+00
     PET DIFF ERROR     6    7   -0.7019144537E-08    0.1499999902E-07
     PET DIFF ERROR     6    8   -0.7019144619E-08    0.1499999902E-07
          0                 3           2             7    6     1      -0.7249587599E-01       7    6    1        -0.3994720095E+01      0.3996999206E+01
          0                 4           2             7    6     1       0.7470521796E-01       7    6    1         0.4154434562E+01      0.4154976643E+01
          0                 5           2             7    6     1      -0.1704880700E-02       7    6    1        -0.9620040012E-01      0.1020325241E+00
          0                 6           2             7    6     1      -0.3114980724E-03       7    6    1        -0.1756016962E-01      0.2131448810E-01
          0                 7           1             7    6     1      -0.5698525790E-04       7    6    1        -0.3209559678E-02      0.6131769348E-02
          0                 8           1            10   10     1       0.1790134252E-04       7    6    1        -0.5873536063E-03      0.2403910464E-02
          0                 9           1            10   10     1       0.8045579295E-05      10   10    1         0.2089503355E-03      0.1049334154E-02

    ------------------------------------------------
       NWT REQUIRED            9 OUTER ITERATIONS 
       AND A TOTAL OF         15 INNER ITERATIONS.
    ------------------------------------------------

 NO OUTPUT CONTROL FOR STRESS PERIOD   10   TIME STEP   28
 
 SOLVING FOR HEAD 
                                                   Max.-Head-Change                         Max.-Flux-Residual
  Residual-Control   Outer-Iter.   Inner-Iter.     Column Row Layer    Maximum-Head-Change  Column Row Layer    Maximum-Flux-Residual          L2-NORM 
          0                 1           2             6   13     1       0.8075500829E-02       6   13    1         0.4290864239E+00      0.1502879404E+01
          0                 2           2             1    2     1       0.2177495406E-02       4   13    1         0.1041494861E+00      0.3963824834E+00
          0                 3           2             7    6     1      -0.7243920264E-01       7    6    1        -0.3991599884E+01      0.3993875609E+01
          0                 4           2             7    6     1       0.7464351018E-01       7    6    1         0.4151005215E+01      0.4151662517E+01
          0                 5           2             7    6     1      -0.1700710500E-02       7    6    1        -0.9596602959E-01      0.1018396869E+00
          0                 6           2             7    6     1      -0.3107318203E-03       7    6    1        -0.1751714207E-01      0.2127285042E-01
          0                 7           1             7    6     1      -0.5684430266E-04       7    6    1        -0.3201651091E-02      0.6122688751E-02
          0                 8           1            10   10     1       0.1789434841E-04       7    6    1        -0.5858983525E-03      0.2401019085E-02
          0                 9           1            10   10     1       0.8042422643E-05      10   10    1         0.2088686327E-03      0.1048143941E-02

    ------------------------------------------------
       NWT REQUIRED            9 OUTER ITERATIONS 
       AND A TOTAL OF         15 INNER ITERATIONS.
    ------------------------------------------------

 NO OUTPUT CONTROL FOR STRESS PERIOD   10   TIME STEP   29
 
 SOLVING FOR HEAD 
                                                   Max.-Head-Change                         Max.-Flux-Residual
  Residual-Control   Outer-Iter.   Inner-Iter.     Column Row Layer    Maximum-Head-Change  Column Row Layer    Maximum-Flux-Residual          L2-NORM 
          0                 1           2             6   13     1       0.7361935661E-02       5   13    1         0.3919384833E+00      0.1427653122E+01
          0                 2           2             1    2     1       0.2173233373E-02       4   13    1         0.1151332497E+00      0.4005900706E+00
     PET DIFF ERROR     6    7   -0.3544581332E-08    0.1499999902E-07
     PET DIFF ERROR     6    8   -0.3544581370E-08    0.1499999902E-07
          0                 3           2             7    6     1      -0.7249603778E-01       7    6    1        -0.3994728755E+01      0.3996984381E+01
          0                 4           2             7    6     1       0.7470513706E-01       7    6    1         0.4154435571E+01      0.4154912067E+01
          0                 5           2             7    6     1      -0.1800995235E-02       7    6    1        -0.1015936720E+00      0.1070968657E+00
          0                 6           2             7    6     1      -0.3313351505E-03       7    6    1        -0.1867248389E-01      0.2222151795E-01
          0                 7           1             7    6     1      -0.5056902309E-04       7    6    1        -0.2849224733E-02      0.5944331715E-02
          0                 8           1            10   10     1       0.1788731729E-04      10   10    1         0.4645490343E-03      0.2338371172E-02
          0                 9           1             7    6     1      -0.1905663846E-04       7    6    1        -0.1089294467E-02      0.1519915475E-02
          0                10           1            10   10     1       0.3613142149E-05       7    6    1        -0.1487053476E-03      0.5516845282E-03

    ------------------------------------------------
       NWT REQUIRED           10 OUTER ITERATIONS 
       AND A TOTAL OF         16 INNER ITERATIONS.
    ------------------------------------------------

 NO OUTPUT CONTROL FOR STRESS PERIOD   10   TIME STEP   30



 STREAM LISTING     PERIOD     10   STEP       30

 LAYER ROW COL. STREAM  RCH.  FLOW INTO     FLOW TO   FLOW OUT OF   OVRLND.     DIRECT     STREAM       STREAM     STREAM     STREAM   STREAMBED  STREAMBED
                SEG.NO.  NO.  STRM. RCH.    AQUIFER    STRM. RCH.    RUNOFF     PRECIP       ET          HEAD       DEPTH      WIDTH   CONDCTNC.   GRADIENT

   1    1    1     1     1    1.4863E+01  1.8611E-01   1.4677E+01  0.000E+00  0.000E+00  0.000E+00  1.09406E+03  1.008E+00  1.032E+01  4.644E-02  1.336E+00
   1    2    2     1     2    1.4677E+01  2.8686E-01   1.4390E+01  0.000E+00  0.000E+00  0.000E+00  1.08906E+03  1.003E+00  1.024E+01  7.166E-02  1.334E+00
   1    3    3     1     3    1.4390E+01  2.4331E-01   1.4147E+01  0.000E+00  0.000E+00  0.000E+00  1.08342E+03  9.976E-01  1.014E+01  6.087E-02  1.333E+00
   1    3    4     1     4    1.4147E+01  2.2296E-01   1.3924E+01  0.000E+00  0.000E+00  0.000E+00  1.07840E+03  9.928E-01  1.006E+01  5.584E-02  1.331E+00
   1    4    5     2     1    1.1924E+01  2.9396E-01   1.1630E+01  0.000E+00  0.000E+00  0.000E+00  1.07270E+03  7.687E-01  1.200E+01  7.800E-02  1.256E+00
   1    5    6     2     2    1.1630E+01  2.2551E-01   1.1404E+01  0.000E+00  0.000E+00  0.000E+00  1.06727E+03  7.585E-01  1.200E+01  6.000E-02  1.253E+00
   1    6    6     2     3    1.1404E+01  2.2497E-01   1.1179E+01  0.000E+00  0.000E+00  0.000E+00  1.06254E+03  7.496E-01  1.200E+01  6.000E-02  1.250E+00
   1    7    6     2     4    1.1179E+01  2.2443E-01   1.0955E+01  0.000E+00  0.000E+00  0.000E+00  1.05782E+03  7.406E-01  1.200E+01  6.000E-02  1.247E+00
   1    8    6     2     5    1.0955E+01  2.2389E-01   1.0731E+01  0.000E+00  0.000E+00  0.000E+00  1.05309E+03  7.315E-01  1.200E+01  6.000E-02  1.244E+00
   1    3    5     3     1    2.0000E+00  2.8252E-01   1.7175E+00  0.000E+00  0.000E+00  0.000E+00  1.07555E+03  1.909E+00  9.636E+00  7.227E-02  1.955E+00
   1    3    6     3     2    1.7175E+00  2.4905E-01   1.4684E+00  0.000E+00  0.000E+00  0.000E+00  1.07264E+03  1.727E+00  8.909E+00  6.682E-02  1.864E+00
   1    3    7     3     3    1.4684E+00  1.9718E-01   1.2712E+00  0.000E+00  0.000E+00  0.000E+00  1.06987E+03  1.555E+00  8.218E+00  5.547E-02  1.777E+00
   1    4    8     3     4    1.2712E+00  2.2567E-01   1.0456E+00  0.000E+00  0.000E+00  0.000E+00  1.06682E+03  1.364E+00  7.455E+00  6.709E-02  1.682E+00
   1    5    8     3     5    1.0456E+00  1.5790E-01   8.8768E-01  0.000E+00  0.000E+00  0.000E+00  1.06362E+03  1.164E+00  6.655E+00  4.991E-02  1.582E+00
   1    6    8     3     6    8.8768E-01  5.5980E-02   8.3170E-01  0.000E+00  0.000E+00  0.000E+00  1.06158E+03  1.036E+00  6.145E+00  1.844E-02  1.518E+00
   1    5   10     4     1    1.0000E+01  9.0919E-02   9.9091E+00  0.000E+00  0.000E+00  0.000E+00  1.07836E+03  6.368E-01  1.000E+01  2.500E-02  1.212E+00
   1    5    9     4     2    9.9091E+00  1.8158E-01   9.7275E+00  0.000E+00  0.000E+00  0.000E+00  1.07154E+03  6.315E-01  1.000E+01  5.000E-02  1.211E+00
   1    6    8     4     3    9.7275E+00  1.2689E-01   9.6006E+00  0.000E+00  0.000E+00  0.000E+00  1.06381E+03  6.256E-01  1.000E+01  3.500E-02  1.209E+00
   1    6    8     5     1    1.0432E+01  2.2686E-01   1.0205E+01  0.000E+00  0.000E+00  0.000E+00  1.05868E+03  6.790E-01  1.542E+01  6.166E-02  1.226E+00
   1    7    7     5     2    1.0205E+01  2.7894E-01   9.9265E+00  0.000E+00  0.000E+00  0.000E+00  1.05417E+03  6.732E-01  1.519E+01  7.594E-02  1.224E+00
   1    8    7     5     3    9.9265E+00  1.9221E-01   9.7343E+00  0.000E+00  0.000E+00  0.000E+00  1.04992E+03  6.676E-01  1.497E+01  5.241E-02  1.223E+00
   1    8    6     5     4    9.7343E+00  1.3577E-01   9.5985E+00  0.000E+00  0.000E+00  0.000E+00  1.04691E+03  6.637E-01  1.482E+01  3.706E-02  1.221E+00
   1    9    6     6     1    2.0059E+01  2.4397E-01   1.9815E+01  0.000E+00  0.000E+00  0.000E+00  1.04379E+03  1.066E+00  1.200E+01  6.000E-02  1.355E+00
   1   10    7     6     2    1.9815E+01  2.4350E-01   1.9571E+01  0.000E+00  0.000E+00  0.000E+00  1.03924E+03  1.058E+00  1.200E+01  6.000E-02  1.353E+00
   1   11    7     6     3    1.9571E+01  2.4303E-01   1.9328E+01  0.000E+00  0.000E+00  0.000E+00  1.03469E+03  1.051E+00  1.200E+01  6.000E-02  1.350E+00
   1   12    7     6     4    1.9328E+01  2.4256E-01   1.9086E+01  0.000E+00  0.000E+00  0.000E+00  1.03013E+03  1.043E+00  1.200E+01  6.000E-02  1.348E+00
   1   13    7     6     5    1.9086E+01 -3.9469E-02   1.9125E+01  0.000E+00  0.000E+00  0.000E+00  1.02695E+03  1.039E+00  1.200E+01  2.400E-01 -5.482E-02
   1   14    9     7     1    1.5000E+02  1.1459E+00   1.4885E+02  0.000E+00  0.000E+00  0.000E+00  1.03987E+03  2.288E+00  5.530E+01  5.593E-01  6.829E-01
   1   13    8     7     2    1.4885E+02  1.6522E+00   1.4720E+02  0.000E+00  0.000E+00  0.000E+00  1.03478E+03  2.281E+00  5.526E+01  6.149E-01  8.957E-01
   1   13    7     7     3    1.4720E+02  1.4405E+00   1.4576E+02  0.000E+00  0.000E+00  0.000E+00  1.02969E+03  2.273E+00  5.523E+01  5.586E-01  8.597E-01
   1   13    6     8     1    1.6489E+02  8.8296E-01   1.6400E+02  0.000E+00  0.000E+00  0.000E+00  1.02479E+03  2.916E+00  4.228E+01  4.308E-01  6.832E-01
   1   13    5     8     2    1.6400E+02  1.2364E-01   1.6388E+02  0.000E+00  0.000E+00  0.000E+00  1.01854E+03  2.912E+00  4.223E+01  4.303E-01  9.577E-02
   1   13    4     8     3    1.6388E+02 -2.8481E+00   1.6673E+02  0.000E+00  0.000E+00  0.000E+00  1.01230E+03  2.921E+00  4.236E+01  4.317E+00 -2.199E-01
   1   13    3     8     4    1.6673E+02 -3.8813E+00   1.7061E+02  0.000E+00  0.000E+00  0.000E+00  1.00607E+03  2.944E+00  4.268E+01  4.349E+00 -2.975E-01
   1   13    2     8     5    1.7061E+02 -2.4140E+00   1.7302E+02  0.000E+00  0.000E+00  0.000E+00  9.99839E+02  2.964E+00  4.298E+01  4.380E+00 -1.837E-01
   1   13    1     8     6    1.7302E+02 -1.5773E+00   1.7460E+02  0.000E+00  0.000E+00  0.000E+00  9.94852E+02  2.977E+00  4.317E+01  2.639E+00 -1.992E-01
   1    6    8     9     1    2.7078E-01  0.0000E+00   2.7078E-01  0.000E+00  0.000E+00  0.000E+00  1.07856E+03  6.089E-02  4.000E+00  0.000E+00  1.020E+00



     PET DIFF ERROR     6    7   -0.1292382747E-09    0.1499999902E-07
     PET DIFF ERROR     6    8   -0.1292382742E-09    0.1499999902E-07


UNSATURATED ZONE PACKAGE VOLUMETRIC BUDGET FOR  TIME STEP    30 STRESS PERIOD   10
  ------------------------------------------------------------------------------



     CUMULATIVE VOLUMES      L**3       RATES FOR THIS TIME STEP      L**3/T
     ------------------                 ------------------------

           IN:                                      IN:
           ---                                      ---
        INFILTRATION =    17734229.4446          INFILTRATION =           0.2748

          OUT:                                     OUT:
          ----                                     ----
              UZF ET =   544842924.9036                UZF ET =           0.7435
        UZF RECHARGE =   593407037.7510          UZF RECHARGE =          22.3367

            IN - OUT = -1120515733.2101              IN - OUT =         -22.8055

          STORAGE:                                 STORAGE:
          --------                                 --------
      STORAGE CHANGE = -1120489904.7748        STORAGE CHANGE =         -22.8055

 PERCENT DISCREPANCY IS DIFFERENCE BETWEEN IN-OUT MINUS CHANGE IN STORAGE
 DIVIDED BY THE AVERAGE OF IN AND OUT TIMES 100

 PERCENT DISCREPANCY =          -0.00     PERCENT DISCREPANCY =          -0.00






1
  VOLUMETRIC BUDGET FOR ENTIRE MODEL AT END OF TIME STEP   30, STRESS PERIOD  10
  ------------------------------------------------------------------------------

     CUMULATIVE VOLUMES      L**3       RATES FOR THIS TIME STEP      L**3/T
     ------------------                 ------------------------

           IN:                                      IN:
           ---                                      ---
             STORAGE     =    32592072.0000               STORAGE     =       2.8948E-02
       CONSTANT HEAD     =           0.0000         CONSTANT HEAD     =           0.0000
               WELLS     =           0.0000                 WELLS     =           0.0000
     HEAD DEP BOUNDS     =     6553834.0000       HEAD DEP BOUNDS     =           0.2728
      STREAM LEAKAGE     =   277662976.0000        STREAM LEAKAGE     =          10.7517
        UZF RECHARGE     =   593406976.0000          UZF RECHARGE     =          22.3367
               GW ET     =           0.0000                 GW ET     =           0.0000
     SURFACE LEAKAGE     =           0.0000       SURFACE LEAKAGE     =           0.0000
    SUPPLEMENTARY WELLS  =           0.0000      SUPPLEMENTARY WELLS  =           0.0000

                TOTAL IN =   910215872.0000                  TOTAL IN =          33.3902

          OUT:                                     OUT:
          ----                                     ----
             STORAGE     =   582559296.0000               STORAGE     =          19.7152
       CONSTANT HEAD     =           0.0000         CONSTANT HEAD     =           0.0000
               WELLS     =           0.0000                 WELLS     =           0.0000
     HEAD DEP BOUNDS     =     6834510.0000       HEAD DEP BOUNDS     =           0.2831
      STREAM LEAKAGE     =   236784816.0000        STREAM LEAKAGE     =          10.7601
        UZF RECHARGE     =           0.0000          UZF RECHARGE     =           0.0000
               GW ET     =    83905488.0000                 GW ET     =           2.6250
     SURFACE LEAKAGE     =           0.0000       SURFACE LEAKAGE     =           0.0000
    SUPPLEMENTARY WELLS  =       36597.8359      SUPPLEMENTARY WELLS  =       5.2145E-03

               TOTAL OUT =   910120704.0000                 TOTAL OUT =          33.3886

                IN - OUT =       95168.0000                  IN - OUT =       1.6136E-03

     PERCENT DISCREPANCY =           0.01         PERCENT DISCREPANCY =           0.00






         TIME SUMMARY AT END OF TIME STEP   30 IN STRESS PERIOD   10
                    SECONDS     MINUTES      HOURS       DAYS        YEARS
                    -----------------------------------------------------------
   TIME STEP LENGTH  87600.      1460.0      24.333      1.0139     2.77588E-03
 STRESS PERIOD TIME 2.62800E+06  43800.      730.00      30.417     8.32763E-02
         TOTAL TIME 2.37384E+07 3.95640E+05  6594.0      274.75     0.75222    
1
1
                            STRESS PERIOD NO.   11, LENGTH =   2628000.    
                            -----------------------------------------------

                              NUMBER OF TIME STEPS =    30

                               MULTIPLIER FOR DELT =     1.000

                            INITIAL TIME STEP SIZE =   87600.00    

 WELL NO.  LAYER   ROW   COL   STRESS RATE         
 --------------------------------------------------
      1      1      6      4       0.000    
      2      1      6      7       0.000    
      3      1      7      4       0.000    
      4      1      7      5       0.000    
      5      1      8      4       0.000    
      6      1      8      5       0.000    
      7      1      9      4       0.000    
      8      1      9      5       0.000    
      9      1     10      4       0.000    
     10      1     10      5       0.000    

     10 WELLS

 REUSING NON-PARAMETER GHB CELLS FROM LAST STRESS PERIOD

      2 GHB CELLS

 REUSING STREAM SEGMENT DATA FROM LAST STRESS PERIOD



            AREAL INFILTRATION RATE
 READING ON UNIT   19 WITH FORMAT: (10F4.0)            

            1           2           3           4           5           6           7           8           9          10
 ........................................................................................................................
   1    0.000       0.000       0.000       0.000       0.000       0.000       0.000       0.000       0.000       0.000    
   2    0.000       0.000       0.000       0.000       0.000       0.000       0.000       0.000       0.000       0.000    
   3    0.000       0.000       0.000       0.000       0.000       0.000       0.000       0.000       0.000       0.000    
   4    0.000       0.000       0.000       0.000       0.000       0.000       0.000       0.000       0.000       0.000    
   5    0.000       0.000       0.000       0.000       0.000       0.000       0.000       0.000       0.000       0.000    
   6    0.000       0.000       0.000       0.000       0.000       0.000       0.000       0.000       0.000       0.000    
   7    0.000       0.000       0.000       0.000       0.000       0.000       0.000       0.000       0.000       0.000    
   8    0.000       0.000       0.000       0.000       0.000       0.000       0.000       0.000       0.000       0.000    
   9    0.000       0.000       0.000       0.000       0.000       0.000       0.000       0.000       0.000       0.000    
  10    0.000       0.000       0.000       0.000       0.000       0.000       0.000       0.000       0.000       0.000    
  11    0.000       0.000       0.000       0.000       0.000       0.000       0.000       0.000       0.000       0.000    
  12    0.000       0.000       0.000       0.000       0.000       0.000       0.000       0.000       0.000       0.000    
  13    0.000       0.000       0.000       0.000       0.000       0.000       0.000       0.000       0.000       0.000    
  14    0.000       0.000       0.000       0.000       0.000       0.000       0.000       0.000       0.000       0.000    
  15    0.000       0.000       0.000       0.000       0.000       0.000       0.000       0.000       0.000       0.000    

                  ET RATE =  1.000000E-09

 USING ET EXTINCTION DEPTH FROM PREVIOUS STRESS PERIOD. CURRENT PERIOD IS:      11

 USING EXTINCTION WATER CONTENT FROM PREVIOUS STRESS PERIOD. CURRENT PERIOD IS:      11

 PROCESSING AGO STRESS PERIOD DATA

 READING AGO STRESS PERIOD DATA

 READING IRRIGATION STREAM

 READING IRRIGATION WELL

 READING SUPPLEMENTAL WEL

 END PROCESSING AGO STRESS PERIOD DATA OPTIONS
 
 SOLVING FOR HEAD 
                                                   Max.-Head-Change                         Max.-Flux-Residual
  Residual-Control   Outer-Iter.   Inner-Iter.     Column Row Layer    Maximum-Head-Change  Column Row Layer    Maximum-Flux-Residual          L2-NORM 
          0                 1           2             5   13     1       0.1328442350E-01       5   13    1         0.7124582011E+00      0.1745184076E+01
          0                 2           2            10   10     1       0.2169407933E-02       5   13    1        -0.6108066887E-01      0.3629078000E+00
     PET DIFF ERROR     6    7   -0.1997190946E-10    0.9999999440E-09
     PET DIFF ERROR     6    8   -0.1997190877E-10    0.9999999440E-09
          0                 3           2             7    6     1      -0.7249649091E-01       7    6    1        -0.3994747540E+01      0.3996959526E+01
          0                 4           2             7    6     1       0.7470577938E-01       7    6    1         0.4154475149E+01      0.4154943348E+01
     PET DIFF ERROR     6    7   -0.2453639984E-10    0.9999999440E-09
     PET DIFF ERROR     6    8   -0.2453638146E-10    0.9999999440E-09
          0                 5           2             7    6     1      -0.7297542422E-01       7    6    1        -0.4095427377E+01      0.4095567220E+01
          0                 6           2             7    6     1       0.7152164708E-01       7    6    1         0.4050511702E+01      0.4050584280E+01
     PET DIFF ERROR     6    7   -0.2912953745E-10    0.9999999440E-09
     PET DIFF ERROR     6    8   -0.2912953904E-10    0.9999999440E-09
          0                 7           2             7    6     1      -0.7047654808E-01       7    6    1        -0.4027835253E+01      0.4027892211E+01
          0                 8           2             7    6     1       0.6914418132E-01       7    6    1         0.3987726789E+01      0.3987779393E+01
     PET DIFF ERROR     6    7   -0.2850117089E-10    0.9999999440E-09
     PET DIFF ERROR     6    8   -0.2850117558E-10    0.9999999440E-09
          0                 9           2             7    6     1      -0.6813865105E-01       7    6    1        -0.3965612427E+01      0.3965662214E+01
          0                10           2             7    6     1       0.6687199259E-01       7    6    1         0.3927319346E+01      0.3927367495E+01
     PET DIFF ERROR     6    7   -0.2085592924E-10    0.9999999440E-09
     PET DIFF ERROR     6    8   -0.2085593636E-10    0.9999999440E-09
                                                   Max.-Head-Change                         Max.-Flux-Residual
  Residual-Control   Outer-Iter.   Inner-Iter.     Column Row Layer    Maximum-Head-Change  Column Row Layer    Maximum-Flux-Residual          L2-NORM 
          0                11           2             7    6     1      -0.6591564663E-01       7    6    1        -0.3906426309E+01      0.3906472346E+01
          0                12           2             7    6     1       0.6471088065E-01       7    6    1         0.3869867040E+01      0.3869911691E+01
     PET DIFF ERROR     6    7   -0.1109567004E-10    0.9999999440E-09
     PET DIFF ERROR     6    8   -0.1109567960E-10    0.9999999440E-09
          0                13           2             7    6     1      -0.6380512078E-01       7    6    1        -0.3850396944E+01      0.3850439677E+01
          0                14           2             7    6     1       0.6265797775E-01       7    6    1         0.3815453991E+01      0.3815495480E+01
          0                15           2             7    6     1       0.3237999329E-02       7    6    1         0.1967264623E+00      0.1974917876E+00
          0                16           2             7    6     1       0.8046358498E-03       7    6    1         0.4885789319E-01      0.4916139416E-01
          0                17           2             7    6     1       0.2039168590E-03       7    6    1         0.1237553827E-01      0.1248376308E-01
          0                18           1             7    6     1       0.5072096686E-04       7    6    1         0.3076425128E-02      0.3113713612E-02
          0                19           1             7    6     1       0.1244953408E-04       7    6    1         0.7546278896E-03      0.7671226954E-03
          0                20           1             7    6     1       0.2886713218E-05       7    6    1         0.1748112345E-03      0.1792780360E-03

    ------------------------------------------------
       NWT REQUIRED           20 OUTER ITERATIONS 
       AND A TOTAL OF         37 INNER ITERATIONS.
    ------------------------------------------------

 NO OUTPUT CONTROL FOR STRESS PERIOD   11   TIME STEP    1
 
 SOLVING FOR HEAD 
                                                   Max.-Head-Change                         Max.-Flux-Residual
  Residual-Control   Outer-Iter.   Inner-Iter.     Column Row Layer    Maximum-Head-Change  Column Row Layer    Maximum-Flux-Residual          L2-NORM 
          0                 1           2             6   13     1       0.1296805955E-01       5   13    1         0.6917011815E+00      0.1716915017E+01
          0                 2           2            10   10     1       0.2168565572E-02       5   13    1        -0.5904652156E-01      0.3624050140E+00
          0                 3           2            10   10     1       0.9746430827E-03      10   10    1         0.2531222056E-01      0.1328673439E+00
          0                 4           2            10   10     1       0.4380442124E-03      10   10    1         0.1137635602E-01      0.5781771154E-01
          0                 5           2            10   10     1       0.1968745518E-03      10   10    1         0.5112995287E-02      0.2579171546E-01
          0                 6           1            10   10     1       0.8848313690E-04      10   10    1         0.2297983476E-02      0.1154581976E-01
          0                 7           1            10   10     1       0.3976772392E-04      10   10    1         0.1032803505E-02      0.5173193197E-02
          0                 8           1            10   10     1       0.1787311474E-04      10   10    1         0.4641814647E-03      0.2316550365E-02
          0                 9           1            10   10     1       0.8032838638E-05      10   10    1         0.2086205952E-03      0.1039984804E-02

    ------------------------------------------------
       NWT REQUIRED            9 OUTER ITERATIONS 
       AND A TOTAL OF         14 INNER ITERATIONS.
    ------------------------------------------------

 NO OUTPUT CONTROL FOR STRESS PERIOD   11   TIME STEP    2
 
 SOLVING FOR HEAD 
                                                   Max.-Head-Change                         Max.-Flux-Residual
  Residual-Control   Outer-Iter.   Inner-Iter.     Column Row Layer    Maximum-Head-Change  Column Row Layer    Maximum-Flux-Residual          L2-NORM 
          0                 1           2             6   13     1       0.1268208106E-01       6   13    1         0.6742152605E+00      0.1690462211E+01
          0                 2           2            10   10     1       0.2167722645E-02       2   13    1         0.5828813830E-01      0.3619422193E+00
          0                 3           2            10   10     1       0.9742626038E-03      10   10    1         0.2530237393E-01      0.1326918438E+00
          0                 4           2            10   10     1       0.4378724752E-03      10   10    1         0.1137191147E-01      0.5773709256E-01
          0                 5           2            10   10     1       0.1967970357E-03      10   10    1         0.5110989153E-02      0.2575766072E-01
          0                 6           1            10   10     1       0.8844814961E-04      10   10    1         0.2297077986E-02      0.1153023339E-01
          0                 7           1            10   10     1       0.3975193216E-04      10   10    1         0.1032394809E-02      0.5165250638E-02
          0                 8           1            10   10     1       0.1786598757E-04      10   10    1         0.4639970028E-03      0.2313558574E-02
          0                 9           1            10   10     1       0.8029621960E-05      10   10    1         0.2085373401E-03      0.1040295109E-02

    ------------------------------------------------
       NWT REQUIRED            9 OUTER ITERATIONS 
       AND A TOTAL OF         14 INNER ITERATIONS.
    ------------------------------------------------

 NO OUTPUT CONTROL FOR STRESS PERIOD   11   TIME STEP    3
 
 SOLVING FOR HEAD 
                                                   Max.-Head-Change                         Max.-Flux-Residual
  Residual-Control   Outer-Iter.   Inner-Iter.     Column Row Layer    Maximum-Head-Change  Column Row Layer    Maximum-Flux-Residual          L2-NORM 
          0                 1           2             7    6     1      -0.2127030948E-01       7    6    1        -0.1169681311E+01      0.2027366769E+01
          0                 2           2             7    6     1       0.2379499613E-01       7    6    1         0.1309827101E+01      0.1356975022E+01
          0                 3           2             7    6     1       0.1230080574E-02       7    6    1         0.6736166424E-01      0.1490433817E+00
          0                 4           2            10   10     1       0.4376901475E-03       7    6    1         0.1149382741E-01      0.5884834052E-01
          0                 5           2            10   10     1       0.1967147649E-03      10   10    1         0.5108859431E-02      0.2580262659E-01
          0                 6           1            10   10     1       0.8841102738E-04      10   10    1         0.2296117001E-02      0.1152042383E-01
          0                 7           1            10   10     1       0.3973518197E-04      10   10    1         0.1031961191E-02      0.5158077743E-02
          0                 8           1            10   10     1       0.1785842972E-04      10   10    1         0.4638013517E-03      0.2310504501E-02
          0                 9           1            10   10     1       0.8026211946E-05      10   10    1         0.2084490601E-03      0.1035079041E-02

    ------------------------------------------------
       NWT REQUIRED            9 OUTER ITERATIONS 
       AND A TOTAL OF         14 INNER ITERATIONS.
    ------------------------------------------------

 NO OUTPUT CONTROL FOR STRESS PERIOD   11   TIME STEP    4
 
 SOLVING FOR HEAD 
                                                   Max.-Head-Change                         Max.-Flux-Residual
  Residual-Control   Outer-Iter.   Inner-Iter.     Column Row Layer    Maximum-Head-Change  Column Row Layer    Maximum-Flux-Residual          L2-NORM 
          0                 1           2             6   13     1       0.1213191948E-01       6   13    1         0.6449568412E+00      0.1641772504E+01
          0                 2           2            10   10     1       0.2165976746E-02       2   13    1         0.6010542241E-01      0.3609506578E+00
          0                 3           2            10   10     1       0.9734746865E-03      10   10    1         0.2528197991E-01      0.1323481127E+00
          0                 4           2            10   10     1       0.4375168963E-03      10   10    1         0.1136270776E-01      0.5758203532E-01
          0                 5           2            10   10     1       0.1966365692E-03      10   10    1         0.5106835628E-02      0.2568749099E-01
          0                 6           1            10   10     1       0.8837573521E-04      10   10    1         0.2295203577E-02      0.1149942172E-01
          0                 7           1            10   10     1       0.3971925365E-04      10   10    1         0.1031548932E-02      0.5150764744E-02
          0                 8           1            10   10     1       0.1785124102E-04      10   10    1         0.4636152856E-03      0.2307400096E-02
          0                 9           1            10   10     1       0.8022967256E-05      10   10    1         0.2083650852E-03      0.1033703535E-02

    ------------------------------------------------
       NWT REQUIRED            9 OUTER ITERATIONS 
       AND A TOTAL OF         14 INNER ITERATIONS.
    ------------------------------------------------

 OUTPUT CONTROL FOR STRESS PERIOD   11   TIME STEP    5
    PRINT BUDGET
    SAVE BUDGET
 UBUDSV SAVING "         STORAGE" ON UNIT102 AT TIME STEP     5, STRESS PERIOD   11
 UBUDSV SAVING "   CONSTANT HEAD" ON UNIT102 AT TIME STEP     5, STRESS PERIOD   11
 UBUDSV SAVING "FLOW RIGHT FACE " ON UNIT102 AT TIME STEP     5, STRESS PERIOD   11
 UBUDSV SAVING "FLOW FRONT FACE " ON UNIT102 AT TIME STEP     5, STRESS PERIOD   11

  HEAD DEP BOUNDS   PERIOD   11   STEP     5
 BOUNDARY      1   LAYER   1   ROW    13   COL     1   RATE   -0.284378    
 BOUNDARY      2   LAYER   1   ROW    14   COL     9   RATE    0.272815    



 STREAM LISTING     PERIOD     11   STEP        5

 LAYER ROW COL. STREAM  RCH.  FLOW INTO     FLOW TO   FLOW OUT OF   OVRLND.     DIRECT     STREAM       STREAM     STREAM     STREAM   STREAMBED  STREAMBED
                SEG.NO.  NO.  STRM. RCH.    AQUIFER    STRM. RCH.    RUNOFF     PRECIP       ET          HEAD       DEPTH      WIDTH   CONDCTNC.   GRADIENT

   1    1    1     1     1    7.0000E+00  1.1914E-01   6.8809E+00  0.000E+00  0.000E+00  0.000E+00  1.09385E+03  7.984E-01  6.970E+00  3.137E-02  1.266E+00
   1    2    2     1     2    6.8809E+00  1.8311E-01   6.6977E+00  0.000E+00  0.000E+00  0.000E+00  1.08885E+03  7.942E-01  6.894E+00  4.826E-02  1.265E+00
   1    3    3     1     3    6.6977E+00  1.5480E-01   6.5429E+00  0.000E+00  0.000E+00  0.000E+00  1.08321E+03  7.894E-01  6.809E+00  4.085E-02  1.263E+00
   1    3    4     1     4    6.5429E+00  1.4143E-01   6.4015E+00  0.000E+00  0.000E+00  0.000E+00  1.07819E+03  7.852E-01  6.732E+00  3.737E-02  1.262E+00
   1    4    5     2     1    4.4015E+00  2.6661E-01   4.1349E+00  0.000E+00  0.000E+00  0.000E+00  1.07235E+03  4.181E-01  1.200E+01  7.800E-02  1.139E+00
   1    5    6     2     2    4.1349E+00  2.0425E-01   3.9306E+00  0.000E+00  0.000E+00  0.000E+00  1.06691E+03  4.041E-01  1.200E+01  6.000E-02  1.135E+00
   1    6    6     2     3    3.9306E+00  2.0350E-01   3.7271E+00  0.000E+00  0.000E+00  0.000E+00  1.06218E+03  3.917E-01  1.200E+01  6.000E-02  1.131E+00
   1    7    6     2     4    3.7271E+00  2.0275E-01   3.5244E+00  0.000E+00  0.000E+00  0.000E+00  1.05745E+03  3.791E-01  1.200E+01  6.000E-02  1.126E+00
   1    8    6     2     5    3.5244E+00  2.0198E-01   3.3224E+00  0.000E+00  0.000E+00  0.000E+00  1.05272E+03  3.663E-01  1.200E+01  6.000E-02  1.122E+00
   1    3    5     3     1    2.0000E+00  2.8252E-01   1.7175E+00  0.000E+00  0.000E+00  0.000E+00  1.07555E+03  1.909E+00  9.636E+00  7.227E-02  1.955E+00
   1    3    6     3     2    1.7175E+00  2.4905E-01   1.4684E+00  0.000E+00  0.000E+00  0.000E+00  1.07264E+03  1.727E+00  8.909E+00  6.682E-02  1.864E+00
   1    3    7     3     3    1.4684E+00  1.9718E-01   1.2712E+00  0.000E+00  0.000E+00  0.000E+00  1.06987E+03  1.555E+00  8.218E+00  5.547E-02  1.777E+00
   1    4    8     3     4    1.2712E+00  2.2567E-01   1.0456E+00  0.000E+00  0.000E+00  0.000E+00  1.06682E+03  1.364E+00  7.455E+00  6.709E-02  1.682E+00
   1    5    8     3     5    1.0456E+00  1.5790E-01   8.8768E-01  0.000E+00  0.000E+00  0.000E+00  1.06362E+03  1.164E+00  6.655E+00  4.991E-02  1.582E+00
   1    6    8     3     6    8.8768E-01  5.5980E-02   8.3170E-01  0.000E+00  0.000E+00  0.000E+00  1.06158E+03  1.036E+00  6.145E+00  1.844E-02  1.518E+00
   1    5   10     4     1    1.0000E+01  9.0919E-02   9.9091E+00  0.000E+00  0.000E+00  0.000E+00  1.07836E+03  6.368E-01  1.000E+01  2.500E-02  1.212E+00
   1    5    9     4     2    9.9091E+00  1.8158E-01   9.7275E+00  0.000E+00  0.000E+00  0.000E+00  1.07154E+03  6.315E-01  1.000E+01  5.000E-02  1.211E+00
   1    6    8     4     3    9.7275E+00  1.2689E-01   9.6006E+00  0.000E+00  0.000E+00  0.000E+00  1.06381E+03  6.256E-01  1.000E+01  3.500E-02  1.209E+00
   1    6    8     5     1    1.0432E+01  2.2686E-01   1.0205E+01  0.000E+00  0.000E+00  0.000E+00  1.05868E+03  6.790E-01  1.542E+01  6.166E-02  1.226E+00
   1    7    7     5     2    1.0205E+01  2.7894E-01   9.9265E+00  0.000E+00  0.000E+00  0.000E+00  1.05417E+03  6.732E-01  1.519E+01  7.594E-02  1.224E+00
   1    8    7     5     3    9.9265E+00  1.9221E-01   9.7343E+00  0.000E+00  0.000E+00  0.000E+00  1.04992E+03  6.676E-01  1.497E+01  5.241E-02  1.223E+00
   1    8    6     5     4    9.7343E+00  1.3577E-01   9.5985E+00  0.000E+00  0.000E+00  0.000E+00  1.04691E+03  6.637E-01  1.482E+01  3.706E-02  1.221E+00
   1    9    6     6     1    1.2921E+01  2.2904E-01   1.2692E+01  0.000E+00  0.000E+00  0.000E+00  1.04354E+03  8.174E-01  1.200E+01  6.000E-02  1.272E+00
   1   10    7     6     2    1.2692E+01  2.2852E-01   1.2463E+01  0.000E+00  0.000E+00  0.000E+00  1.03899E+03  8.086E-01  1.200E+01  6.000E-02  1.270E+00
   1   11    7     6     3    1.2463E+01  2.2799E-01   1.2235E+01  0.000E+00  0.000E+00  0.000E+00  1.03444E+03  7.998E-01  1.200E+01  6.000E-02  1.267E+00
   1   12    7     6     4    1.2235E+01  2.2745E-01   1.2008E+01  0.000E+00  0.000E+00  0.000E+00  1.02988E+03  7.909E-01  1.200E+01  6.000E-02  1.264E+00
   1   13    7     6     5    1.2008E+01 -1.1067E-01   1.2119E+01  0.000E+00  0.000E+00  0.000E+00  1.02670E+03  7.886E-01  1.200E+01  2.400E-01 -1.537E-01
   1   14    9     7     1    1.5000E+02  1.1456E+00   1.4885E+02  0.000E+00  0.000E+00  0.000E+00  1.03987E+03  2.288E+00  5.530E+01  5.593E-01  6.827E-01
   1   13    8     7     2    1.4885E+02  1.6502E+00   1.4720E+02  0.000E+00  0.000E+00  0.000E+00  1.03478E+03  2.281E+00  5.526E+01  6.149E-01  8.946E-01
   1   13    7     7     3    1.4720E+02  1.4149E+00   1.4579E+02  0.000E+00  0.000E+00  0.000E+00  1.02969E+03  2.273E+00  5.523E+01  5.586E-01  8.444E-01
   1   13    6     8     1    1.5791E+02  8.2387E-01   1.5708E+02  0.000E+00  0.000E+00  0.000E+00  1.02474E+03  2.869E+00  4.160E+01  4.239E-01  6.478E-01
   1   13    5     8     2    1.5708E+02  7.7385E-02   1.5701E+02  0.000E+00  0.000E+00  0.000E+00  1.01849E+03  2.866E+00  4.155E+01  4.234E-01  6.092E-02
   1   13    4     8     3    1.5701E+02 -3.0670E+00   1.6007E+02  0.000E+00  0.000E+00  0.000E+00  1.01225E+03  2.876E+00  4.170E+01  4.249E+00 -2.406E-01
   1   13    3     8     4    1.6007E+02 -4.0768E+00   1.6415E+02  0.000E+00  0.000E+00  0.000E+00  1.00603E+03  2.900E+00  4.205E+01  4.285E+00 -3.171E-01
   1   13    2     8     5    1.6415E+02 -2.6269E+00   1.6678E+02  0.000E+00  0.000E+00  0.000E+00  9.99797E+02  2.922E+00  4.237E+01  4.318E+00 -2.028E-01
   1   13    1     8     6    1.6678E+02 -1.7491E+00   1.6853E+02  0.000E+00  0.000E+00  0.000E+00  9.94812E+02  2.937E+00  4.258E+01  2.604E+00 -2.239E-01
   1    6    8     9     1    4.7623E-08  0.0000E+00   4.7623E-08  0.000E+00  0.000E+00  0.000E+00  1.07850E+03  5.847E-06  4.000E+00  0.000E+00  1.000E+00



 UBDSV3 SAVING "     NETRECHARGE" ON UNIT 100 AT TIME STEP     5, STRESS PERIOD  11
 UBDSV3 SAVING "    NETDISCHARGE" ON UNIT 101 AT TIME STEP     5, STRESS PERIOD  11
 UBDSV3 SAVING "           GW ET" ON UNIT  61 AT TIME STEP     5, STRESS PERIOD  11
 UBDSV3 SAVING "    UZF RECHARGE" ON UNIT  61 AT TIME STEP     5, STRESS PERIOD  11
 UBDSV3 SAVING " SURFACE LEAKAGE" ON UNIT  61 AT TIME STEP     5, STRESS PERIOD  11
 UBDSV3 SAVING "       HORT+DUNN" ON UNIT  61 AT TIME STEP     5, STRESS PERIOD  11
 UBDSV3 SAVING "  STORAGE CHANGE" ON UNIT  61 AT TIME STEP     5, STRESS PERIOD  11


UNSATURATED ZONE PACKAGE VOLUMETRIC BUDGET FOR  TIME STEP     5 STRESS PERIOD   11
  ------------------------------------------------------------------------------



     CUMULATIVE VOLUMES      L**3       RATES FOR THIS TIME STEP      L**3/T
     ------------------                 ------------------------

           IN:                                      IN:
           ---                                      ---
        INFILTRATION =    17787596.6944          INFILTRATION =           0.0000

          OUT:                                     OUT:
          ----                                     ----
              UZF ET =   544864731.6805                UZF ET =           0.0500
        UZF RECHARGE =   603114147.1490          UZF RECHARGE =          22.1405

            IN - OUT = -1130191282.1351              IN - OUT =         -22.1905

          STORAGE:                                 STORAGE:
          --------                                 --------
      STORAGE CHANGE = -1130165428.4610        STORAGE CHANGE =         -22.1902

 PERCENT DISCREPANCY IS DIFFERENCE BETWEEN IN-OUT MINUS CHANGE IN STORAGE
 DIVIDED BY THE AVERAGE OF IN AND OUT TIMES 100

 PERCENT DISCREPANCY =          -0.00     PERCENT DISCREPANCY =          -0.00






1
  VOLUMETRIC BUDGET FOR ENTIRE MODEL AT END OF TIME STEP    5, STRESS PERIOD  11
  ------------------------------------------------------------------------------

     CUMULATIVE VOLUMES      L**3       RATES FOR THIS TIME STEP      L**3/T
     ------------------                 ------------------------

           IN:                                      IN:
           ---                                      ---
             STORAGE     =    32603028.0000               STORAGE     =       2.2689E-02
       CONSTANT HEAD     =           0.0000         CONSTANT HEAD     =           0.0000
               WELLS     =           0.0000                 WELLS     =           0.0000
     HEAD DEP BOUNDS     =     6673329.5000       HEAD DEP BOUNDS     =           0.2728
      STREAM LEAKAGE     =   282100800.0000        STREAM LEAKAGE     =          10.1040
        UZF RECHARGE     =   603114112.0000          UZF RECHARGE     =          22.1404
               GW ET     =           0.0000                 GW ET     =           0.0000
     SURFACE LEAKAGE     =           0.0000       SURFACE LEAKAGE     =           0.0000
    SUPPLEMENTARY WELLS  =           0.0000      SUPPLEMENTARY WELLS  =           0.0000

                TOTAL IN =   924491264.0000                  TOTAL IN =          32.5400

          OUT:                                     OUT:
          ----                                     ----
             STORAGE     =   591581312.0000               STORAGE     =          20.4468
       CONSTANT HEAD     =           0.0000         CONSTANT HEAD     =           0.0000
               WELLS     =           0.0000                 WELLS     =           0.0000
     HEAD DEP BOUNDS     =     6958852.0000       HEAD DEP BOUNDS     =           0.2844
      STREAM LEAKAGE     =   241836016.0000        STREAM LEAKAGE     =          11.6305
        UZF RECHARGE     =           0.0000          UZF RECHARGE     =           0.0000
               GW ET     =    83982128.0000                 GW ET     =           0.1750
     SURFACE LEAKAGE     =           0.0000       SURFACE LEAKAGE     =           0.0000
    SUPPLEMENTARY WELLS  =       36672.9688      SUPPLEMENTARY WELLS  =       4.2331E-09

               TOTAL OUT =   924395008.0000                 TOTAL OUT =          32.5367

                IN - OUT =       96256.0000                  IN - OUT =       3.2501E-03

     PERCENT DISCREPANCY =           0.01         PERCENT DISCREPANCY =           0.01






         TIME SUMMARY AT END OF TIME STEP    5 IN STRESS PERIOD   11
                    SECONDS     MINUTES      HOURS       DAYS        YEARS
                    -----------------------------------------------------------
   TIME STEP LENGTH  87600.      1460.0      24.333      1.0139     2.77588E-03
 STRESS PERIOD TIME 4.38000E+05  7300.0      121.67      5.0694     1.38794E-02
         TOTAL TIME 2.41764E+07 4.02940E+05  6715.7      279.82     0.76610    
1
 
 SOLVING FOR HEAD 
                                                   Max.-Head-Change                         Max.-Flux-Residual
  Residual-Control   Outer-Iter.   Inner-Iter.     Column Row Layer    Maximum-Head-Change  Column Row Layer    Maximum-Flux-Residual          L2-NORM 
          0                 1           2             6   13     1       0.1186644816E-01       6   13    1         0.6308262681E+00      0.1620011219E+01
          0                 2           2            10   10     1       0.2165122287E-02       2   13    1         0.6096812580E-01      0.3606041741E+00
          0                 3           2            10   10     1       0.9730889813E-03      10   10    1         0.2527199846E-01      0.1321830211E+00
          0                 4           2            10   10     1       0.4373427907E-03      10   10    1         0.1135820211E-01      0.5750639936E-01
          0                 5           2            10   10     1       0.1965579805E-03      10   10    1         0.5104801812E-02      0.2565378391E-01
          0                 6           1            10   10     1       0.8834026172E-04      10   10    1         0.2294285540E-02      0.1148444376E-01
          0                 7           1            10   10     1       0.3970324229E-04      10   10    1         0.1031134553E-02      0.5144102973E-02
          0                 8           1            10   10     1       0.1784401407E-04      10   10    1         0.4634282477E-03      0.2304429604E-02
          0                 9           1            10   10     1       0.8019705308E-05      10   10    1         0.2082806612E-03      0.1032388005E-02

    ------------------------------------------------
       NWT REQUIRED            9 OUTER ITERATIONS 
       AND A TOTAL OF         14 INNER ITERATIONS.
    ------------------------------------------------

 NO OUTPUT CONTROL FOR STRESS PERIOD   11   TIME STEP    6
 
 SOLVING FOR HEAD 
                                                   Max.-Head-Change                         Max.-Flux-Residual
  Residual-Control   Outer-Iter.   Inner-Iter.     Column Row Layer    Maximum-Head-Change  Column Row Layer    Maximum-Flux-Residual          L2-NORM 
          0                 1           2             6   13     1       0.1160752491E-01       6   13    1         0.6170430640E+00      0.1599501609E+01
          0                 2           2            10   10     1       0.2164215342E-02       2   13    1         0.6177676680E-01      0.3602615857E+00
          0                 3           2            10   10     1       0.9726797606E-03      10   10    1         0.2526140472E-01      0.1320201849E+00
          0                 4           2            10   10     1       0.4371581503E-03      10   10    1         0.1135342216E-01      0.5743201524E-01
          0                 5           2            10   10     1       0.1964746718E-03      10   10    1         0.5102645096E-02      0.2562059016E-01
          0                 6           1            10   10     1       0.8830267378E-04      10   10    1         0.2293312444E-02      0.1146967254E-01
          0                 7           1            10   10     1       0.3968628301E-04      10   10    1         0.1030695507E-02      0.5137531139E-02
          0                 8           1            10   10     1       0.1783636242E-04      10   10    1         0.4632301611E-03      0.2301504576E-02
          0                 9           1            10   10     1       0.8016253275E-05      10   10    1         0.2081912933E-03      0.1031084787E-02

    ------------------------------------------------
       NWT REQUIRED            9 OUTER ITERATIONS 
       AND A TOTAL OF         14 INNER ITERATIONS.
    ------------------------------------------------

 NO OUTPUT CONTROL FOR STRESS PERIOD   11   TIME STEP    7
 
 SOLVING FOR HEAD 
                                                   Max.-Head-Change                         Max.-Flux-Residual
  Residual-Control   Outer-Iter.   Inner-Iter.     Column Row Layer    Maximum-Head-Change  Column Row Layer    Maximum-Flux-Residual          L2-NORM 
          0                 1           2             6   13     1       0.1135505954E-01       6   13    1         0.6036091042E+00      0.1580295638E+01
          0                 2           2            10   10     1       0.2163353484E-02       2   13    1         0.6253623707E-01      0.3599437621E+00
          0                 3           2            10   10     1       0.9722907834E-03      10   10    1         0.2525133717E-01      0.1318602761E+00
          0                 4           2            10   10     1       0.4369825981E-03      10   10    1         0.1134887844E-01      0.5735853584E-01
          0                 5           2            10   10     1       0.1963954434E-03      10   10    1         0.5100594445E-02      0.2558780500E-01
          0                 6           1            10   10     1       0.8826691790E-04      10   10    1         0.2292386971E-02      0.1145508255E-01
          0                 7           1            10   10     1       0.3967014710E-04      10   10    1         0.1030277843E-02      0.5131037725E-02
          0                 8           1            10   10     1       0.1782908044E-04      10   10    1         0.4630416694E-03      0.2298613875E-02
          0                 9           1            10   10     1       0.8012967066E-05      10   10    1         0.2081062283E-03      0.1029797863E-02

    ------------------------------------------------
       NWT REQUIRED            9 OUTER ITERATIONS 
       AND A TOTAL OF         14 INNER ITERATIONS.
    ------------------------------------------------

 NO OUTPUT CONTROL FOR STRESS PERIOD   11   TIME STEP    8
 
 SOLVING FOR HEAD 
                                                   Max.-Head-Change                         Max.-Flux-Residual
  Residual-Control   Outer-Iter.   Inner-Iter.     Column Row Layer    Maximum-Head-Change  Column Row Layer    Maximum-Flux-Residual          L2-NORM 
          0                 1           2             6   13     1       0.1110854116E-01       6   13    1         0.5904944561E+00      0.1562277552E+01
          0                 2           2            10   10     1       0.2162438944E-02       2   13    1         0.6324657569E-01      0.3596557605E+00
          0                 3           2            10   10     1       0.9718781064E-03      10   10    1         0.2524065458E-01      0.1317029689E+00
          0                 4           2            10   10     1       0.4367963849E-03      10   10    1         0.1134405804E-01      0.5728574781E-01
          0                 5           2            10   10     1       0.1963114193E-03      10   10    1         0.5098419331E-02      0.2555529852E-01
          0                 6           1            10   10     1       0.8822900482E-04      10   10    1         0.2291405506E-02      0.1144061552E-01
          0                 7           1            10   10     1       0.3965303975E-04      10   10    1         0.1029834986E-02      0.5124600090E-02
          0                 8           1            10   10     1       0.1782136201E-04      10   10    1         0.4628418530E-03      0.2295747891E-02
          0                 9           1            10   10     1       0.8009484770E-05      10   10    1         0.2080160697E-03      0.1028521499E-02

    ------------------------------------------------
       NWT REQUIRED            9 OUTER ITERATIONS 
       AND A TOTAL OF         14 INNER ITERATIONS.
    ------------------------------------------------

 NO OUTPUT CONTROL FOR STRESS PERIOD   11   TIME STEP    9
 
 SOLVING FOR HEAD 
                                                   Max.-Head-Change                         Max.-Flux-Residual
  Residual-Control   Outer-Iter.   Inner-Iter.     Column Row Layer    Maximum-Head-Change  Column Row Layer    Maximum-Flux-Residual          L2-NORM 
          0                 1           2             6   13     1       0.1086826563E-01       6   13    1         0.5776992931E+00      0.1545418854E+01
          0                 2           2            10   10     1       0.2161569364E-02       2   13    1         0.6391393110E-01      0.3593848355E+00
          0                 3           2            10   10     1       0.9714856166E-03      10   10    1         0.2523049668E-01      0.1315497923E+00
          0                 4           2            10   10     1       0.4366192358E-03      10   10    1         0.1133947323E-01      0.5721484395E-01
          0                 5           2            10   10     1       0.1962314651E-03      10   10    1         0.5096349999E-02      0.2552360008E-01
          0                 6           1            10   10     1       0.8819291955E-04      10   10    1         0.2290471547E-02      0.1142649139E-01
          0                 7           1            10   10     1       0.3963675402E-04      10   10    1         0.1029413463E-02      0.5118306045E-02
          0                 8           1            10   10     1       0.1781401150E-04      10   10    1         0.4626516052E-03      0.2292942175E-02
          0                 9           1            10   10     1       0.8006167297E-05      10   10    1         0.2079302113E-03      0.1027272046E-02

    ------------------------------------------------
       NWT REQUIRED            9 OUTER ITERATIONS 
       AND A TOTAL OF         14 INNER ITERATIONS.
    ------------------------------------------------

 OUTPUT CONTROL FOR STRESS PERIOD   11   TIME STEP   10
    PRINT BUDGET
    SAVE BUDGET
 UBUDSV SAVING "         STORAGE" ON UNIT102 AT TIME STEP    10, STRESS PERIOD   11
 UBUDSV SAVING "   CONSTANT HEAD" ON UNIT102 AT TIME STEP    10, STRESS PERIOD   11
 UBUDSV SAVING "FLOW RIGHT FACE " ON UNIT102 AT TIME STEP    10, STRESS PERIOD   11
 UBUDSV SAVING "FLOW FRONT FACE " ON UNIT102 AT TIME STEP    10, STRESS PERIOD   11

  HEAD DEP BOUNDS   PERIOD   11   STEP    10
 BOUNDARY      1   LAYER   1   ROW    13   COL     1   RATE   -0.285404    
 BOUNDARY      2   LAYER   1   ROW    14   COL     9   RATE    0.272801    



 STREAM LISTING     PERIOD     11   STEP       10

 LAYER ROW COL. STREAM  RCH.  FLOW INTO     FLOW TO   FLOW OUT OF   OVRLND.     DIRECT     STREAM       STREAM     STREAM     STREAM   STREAMBED  STREAMBED
                SEG.NO.  NO.  STRM. RCH.    AQUIFER    STRM. RCH.    RUNOFF     PRECIP       ET          HEAD       DEPTH      WIDTH   CONDCTNC.   GRADIENT

   1    1    1     1     1    7.0000E+00  1.1914E-01   6.8809E+00  0.000E+00  0.000E+00  0.000E+00  1.09385E+03  7.984E-01  6.970E+00  3.137E-02  1.266E+00
   1    2    2     1     2    6.8809E+00  1.8311E-01   6.6977E+00  0.000E+00  0.000E+00  0.000E+00  1.08885E+03  7.942E-01  6.894E+00  4.826E-02  1.265E+00
   1    3    3     1     3    6.6977E+00  1.5480E-01   6.5429E+00  0.000E+00  0.000E+00  0.000E+00  1.08321E+03  7.894E-01  6.809E+00  4.085E-02  1.263E+00
   1    3    4     1     4    6.5429E+00  1.4143E-01   6.4015E+00  0.000E+00  0.000E+00  0.000E+00  1.07819E+03  7.852E-01  6.732E+00  3.737E-02  1.262E+00
   1    4    5     2     1    4.4015E+00  2.6661E-01   4.1349E+00  0.000E+00  0.000E+00  0.000E+00  1.07235E+03  4.181E-01  1.200E+01  7.800E-02  1.139E+00
   1    5    6     2     2    4.1349E+00  2.0425E-01   3.9306E+00  0.000E+00  0.000E+00  0.000E+00  1.06691E+03  4.041E-01  1.200E+01  6.000E-02  1.135E+00
   1    6    6     2     3    3.9306E+00  2.0350E-01   3.7271E+00  0.000E+00  0.000E+00  0.000E+00  1.06218E+03  3.917E-01  1.200E+01  6.000E-02  1.131E+00
   1    7    6     2     4    3.7271E+00  2.0275E-01   3.5244E+00  0.000E+00  0.000E+00  0.000E+00  1.05745E+03  3.791E-01  1.200E+01  6.000E-02  1.126E+00
   1    8    6     2     5    3.5244E+00  2.0198E-01   3.3224E+00  0.000E+00  0.000E+00  0.000E+00  1.05272E+03  3.663E-01  1.200E+01  6.000E-02  1.122E+00
   1    3    5     3     1    2.0000E+00  2.8252E-01   1.7175E+00  0.000E+00  0.000E+00  0.000E+00  1.07555E+03  1.909E+00  9.636E+00  7.227E-02  1.955E+00
   1    3    6     3     2    1.7175E+00  2.4905E-01   1.4684E+00  0.000E+00  0.000E+00  0.000E+00  1.07264E+03  1.727E+00  8.909E+00  6.682E-02  1.864E+00
   1    3    7     3     3    1.4684E+00  1.9718E-01   1.2712E+00  0.000E+00  0.000E+00  0.000E+00  1.06987E+03  1.555E+00  8.218E+00  5.547E-02  1.777E+00
   1    4    8     3     4    1.2712E+00  2.2567E-01   1.0456E+00  0.000E+00  0.000E+00  0.000E+00  1.06682E+03  1.364E+00  7.455E+00  6.709E-02  1.682E+00
   1    5    8     3     5    1.0456E+00  1.5790E-01   8.8768E-01  0.000E+00  0.000E+00  0.000E+00  1.06362E+03  1.164E+00  6.655E+00  4.991E-02  1.582E+00
   1    6    8     3     6    8.8768E-01  5.5980E-02   8.3170E-01  0.000E+00  0.000E+00  0.000E+00  1.06158E+03  1.036E+00  6.145E+00  1.844E-02  1.518E+00
   1    5   10     4     1    1.0000E+01  9.0919E-02   9.9091E+00  0.000E+00  0.000E+00  0.000E+00  1.07836E+03  6.368E-01  1.000E+01  2.500E-02  1.212E+00
   1    5    9     4     2    9.9091E+00  1.8158E-01   9.7275E+00  0.000E+00  0.000E+00  0.000E+00  1.07154E+03  6.315E-01  1.000E+01  5.000E-02  1.211E+00
   1    6    8     4     3    9.7275E+00  1.2689E-01   9.6006E+00  0.000E+00  0.000E+00  0.000E+00  1.06381E+03  6.256E-01  1.000E+01  3.500E-02  1.209E+00
   1    6    8     5     1    1.0432E+01  2.2686E-01   1.0205E+01  0.000E+00  0.000E+00  0.000E+00  1.05868E+03  6.790E-01  1.542E+01  6.166E-02  1.226E+00
   1    7    7     5     2    1.0205E+01  2.7894E-01   9.9265E+00  0.000E+00  0.000E+00  0.000E+00  1.05417E+03  6.732E-01  1.519E+01  7.594E-02  1.224E+00
   1    8    7     5     3    9.9265E+00  1.9221E-01   9.7343E+00  0.000E+00  0.000E+00  0.000E+00  1.04992E+03  6.676E-01  1.497E+01  5.241E-02  1.223E+00
   1    8    6     5     4    9.7343E+00  1.3577E-01   9.5985E+00  0.000E+00  0.000E+00  0.000E+00  1.04691E+03  6.637E-01  1.482E+01  3.706E-02  1.221E+00
   1    9    6     6     1    1.2921E+01  2.2904E-01   1.2692E+01  0.000E+00  0.000E+00  0.000E+00  1.04354E+03  8.174E-01  1.200E+01  6.000E-02  1.272E+00
   1   10    7     6     2    1.2692E+01  2.2852E-01   1.2463E+01  0.000E+00  0.000E+00  0.000E+00  1.03899E+03  8.086E-01  1.200E+01  6.000E-02  1.270E+00
   1   11    7     6     3    1.2463E+01  2.2799E-01   1.2235E+01  0.000E+00  0.000E+00  0.000E+00  1.03444E+03  7.998E-01  1.200E+01  6.000E-02  1.267E+00
   1   12    7     6     4    1.2235E+01  2.2745E-01   1.2008E+01  0.000E+00  0.000E+00  0.000E+00  1.02988E+03  7.909E-01  1.200E+01  6.000E-02  1.264E+00
   1   13    7     6     5    1.2008E+01 -1.2020E-01   1.2128E+01  0.000E+00  0.000E+00  0.000E+00  1.02670E+03  7.888E-01  1.200E+01  2.400E-01 -1.669E-01
   1   14    9     7     1    1.5000E+02  1.1454E+00   1.4885E+02  0.000E+00  0.000E+00  0.000E+00  1.03987E+03  2.288E+00  5.530E+01  5.593E-01  6.826E-01
   1   13    8     7     2    1.4885E+02  1.6475E+00   1.4721E+02  0.000E+00  0.000E+00  0.000E+00  1.03478E+03  2.281E+00  5.526E+01  6.149E-01  8.932E-01
   1   13    7     7     3    1.4721E+02  1.3927E+00   1.4581E+02  0.000E+00  0.000E+00  0.000E+00  1.02969E+03  2.273E+00  5.523E+01  5.586E-01  8.311E-01
   1   13    6     8     1    1.5794E+02  8.0160E-01   1.5714E+02  0.000E+00  0.000E+00  0.000E+00  1.02474E+03  2.869E+00  4.160E+01  4.239E-01  6.303E-01
   1   13    5     8     2    1.5714E+02  5.6236E-02   1.5708E+02  0.000E+00  0.000E+00  0.000E+00  1.01849E+03  2.866E+00  4.156E+01  4.235E-01  4.426E-02
   1   13    4     8     3    1.5708E+02 -3.1220E+00   1.6021E+02  0.000E+00  0.000E+00  0.000E+00  1.01225E+03  2.877E+00  4.171E+01  4.251E+00 -2.448E-01
   1   13    3     8     4    1.6021E+02 -4.1212E+00   1.6433E+02  0.000E+00  0.000E+00  0.000E+00  1.00603E+03  2.901E+00  4.207E+01  4.287E+00 -3.205E-01
   1   13    2     8     5    1.6433E+02 -2.6731E+00   1.6700E+02  0.000E+00  0.000E+00  0.000E+00  9.99799E+02  2.924E+00  4.239E+01  4.320E+00 -2.063E-01
   1   13    1     8     6    1.6700E+02 -1.8161E+00   1.6882E+02  0.000E+00  0.000E+00  0.000E+00  9.94814E+02  2.939E+00  4.261E+01  2.605E+00 -2.324E-01
   1    6    8     9     1    7.4015E-06  0.0000E+00   7.4015E-06  0.000E+00  0.000E+00  0.000E+00  1.07850E+03  1.043E-04  4.000E+00  0.000E+00  1.000E+00



 UBDSV3 SAVING "     NETRECHARGE" ON UNIT 100 AT TIME STEP    10, STRESS PERIOD  11
 UBDSV3 SAVING "    NETDISCHARGE" ON UNIT 101 AT TIME STEP    10, STRESS PERIOD  11
 UBDSV3 SAVING "           GW ET" ON UNIT  61 AT TIME STEP    10, STRESS PERIOD  11
 UBDSV3 SAVING "    UZF RECHARGE" ON UNIT  61 AT TIME STEP    10, STRESS PERIOD  11
 UBDSV3 SAVING " SURFACE LEAKAGE" ON UNIT  61 AT TIME STEP    10, STRESS PERIOD  11
 UBDSV3 SAVING "       HORT+DUNN" ON UNIT  61 AT TIME STEP    10, STRESS PERIOD  11
 UBDSV3 SAVING "  STORAGE CHANGE" ON UNIT  61 AT TIME STEP    10, STRESS PERIOD  11


UNSATURATED ZONE PACKAGE VOLUMETRIC BUDGET FOR  TIME STEP    10 STRESS PERIOD   11
  ------------------------------------------------------------------------------



     CUMULATIVE VOLUMES      L**3       RATES FOR THIS TIME STEP      L**3/T
     ------------------                 ------------------------

           IN:                                      IN:
           ---                                      ---
        INFILTRATION =    17787597.4021          INFILTRATION =           0.0000

          OUT:                                     OUT:
          ----                                     ----
              UZF ET =   544886631.5982                UZF ET =           0.0500
        UZF RECHARGE =   612809886.5870          UZF RECHARGE =          22.1294

            IN - OUT = -1139908920.7831              IN - OUT =         -22.1793

          STORAGE:                                 STORAGE:
          --------                                 --------
      STORAGE CHANGE = -1139883067.0851        STORAGE CHANGE =         -22.1793

 PERCENT DISCREPANCY IS DIFFERENCE BETWEEN IN-OUT MINUS CHANGE IN STORAGE
 DIVIDED BY THE AVERAGE OF IN AND OUT TIMES 100

 PERCENT DISCREPANCY =          -0.00     PERCENT DISCREPANCY =           0.00






1
  VOLUMETRIC BUDGET FOR ENTIRE MODEL AT END OF TIME STEP   10, STRESS PERIOD  11
  ------------------------------------------------------------------------------

     CUMULATIVE VOLUMES      L**3       RATES FOR THIS TIME STEP      L**3/T
     ------------------                 ------------------------

           IN:                                      IN:
           ---                                      ---
             STORAGE     =    32611866.0000               STORAGE     =       2.1829E-02
       CONSTANT HEAD     =           0.0000         CONSTANT HEAD     =           0.0000
               WELLS     =           0.0000                 WELLS     =           0.0000
     HEAD DEP BOUNDS     =     6792819.0000       HEAD DEP BOUNDS     =           0.2728
      STREAM LEAKAGE     =   286508096.0000        STREAM LEAKAGE     =          10.0355
        UZF RECHARGE     =   612809920.0000          UZF RECHARGE     =          22.1294
               GW ET     =           0.0000                 GW ET     =           0.0000
     SURFACE LEAKAGE     =           0.0000       SURFACE LEAKAGE     =           0.0000
    SUPPLEMENTARY WELLS  =           0.0000      SUPPLEMENTARY WELLS  =           0.0000

                TOTAL IN =   938722688.0000                  TOTAL IN =          32.4595

          OUT:                                     OUT:
          ----                                     ----
             STORAGE     =   600455232.0000               STORAGE     =          20.1433
       CONSTANT HEAD     =           0.0000         CONSTANT HEAD     =           0.0000
               WELLS     =           0.0000                 WELLS     =           0.0000
     HEAD DEP BOUNDS     =     7083687.5000       HEAD DEP BOUNDS     =           0.2854
      STREAM LEAKAGE     =   246990576.0000        STREAM LEAKAGE     =          11.8526
        UZF RECHARGE     =           0.0000          UZF RECHARGE     =           0.0000
               GW ET     =    84058768.0000                 GW ET     =           0.1750
     SURFACE LEAKAGE     =           0.0000       SURFACE LEAKAGE     =           0.0000
    SUPPLEMENTARY WELLS  =       36673.0352      SUPPLEMENTARY WELLS  =       7.4036E-07

               TOTAL OUT =   938624960.0000                 TOTAL OUT =          32.4563

                IN - OUT =       97728.0000                  IN - OUT =       3.2425E-03

     PERCENT DISCREPANCY =           0.01         PERCENT DISCREPANCY =           0.01






         TIME SUMMARY AT END OF TIME STEP   10 IN STRESS PERIOD   11
                    SECONDS     MINUTES      HOURS       DAYS        YEARS
                    -----------------------------------------------------------
   TIME STEP LENGTH  87600.      1460.0      24.333      1.0139     2.77588E-03
 STRESS PERIOD TIME 8.76000E+05  14600.      243.33      10.139     2.77588E-02
         TOTAL TIME 2.46144E+07 4.10240E+05  6837.3      284.89     0.77998    
1
 
 SOLVING FOR HEAD 
                                                   Max.-Head-Change                         Max.-Flux-Residual
  Residual-Control   Outer-Iter.   Inner-Iter.     Column Row Layer    Maximum-Head-Change  Column Row Layer    Maximum-Flux-Residual          L2-NORM 
          0                 1           2             6   13     1       0.1063411565E-01       6   13    1         0.5652303057E+00      0.1529430131E+01
          0                 2           2            10   10     1       0.2160647154E-02       2   13    1         0.6453892304E-01      0.3591172697E+00
          0                 3           2            10   10     1       0.9710695004E-03      10   10    1         0.2521972460E-01      0.1313964182E+00
          0                 4           2            10   10     1       0.4364314804E-03      10   10    1         0.1133461271E-01      0.5714366059E-01
          0                 5           2            10   10     1       0.1961467500E-03      10   10    1         0.5094156896E-02      0.2549175640E-01
          0                 6           1            10   10     1       0.8815469608E-04      10   10    1         0.2289482015E-02      0.1141229933E-01
          0                 7           1            10   10     1       0.3961950811E-04      10   10    1         0.1028966996E-02      0.5111982992E-02
          0                 8           1            10   10     1       0.1780623079E-04      10   10    1         0.4624501721E-03      0.2290124730E-02
          0                 9           1            10   10     1       0.8002656988E-05      10   10    1         0.2078393305E-03      0.1026014645E-02

    ------------------------------------------------
       NWT REQUIRED            9 OUTER ITERATIONS 
       AND A TOTAL OF         14 INNER ITERATIONS.
    ------------------------------------------------

 NO OUTPUT CONTROL FOR STRESS PERIOD   11   TIME STEP   11
 
 SOLVING FOR HEAD 
                                                   Max.-Head-Change                         Max.-Flux-Residual
  Residual-Control   Outer-Iter.   Inner-Iter.     Column Row Layer    Maximum-Head-Change  Column Row Layer    Maximum-Flux-Residual          L2-NORM 
          0                 1           2             6   13     1       0.1040581892E-01       6   13    1         0.5530719851E+00      0.1514524757E+01
          0                 2           2            10   10     1       0.2159769957E-02       2   13    1         0.6512427838E-01      0.3588663299E+00
          0                 3           2            10   10     1       0.9706735949E-03      10   10    1         0.2520947783E-01      0.1312448768E+00
          0                 4           2            10   10     1       0.4362527998E-03      10   10    1         0.1132998805E-01      0.5707319028E-01
          0                 5           2            10   10     1       0.1960661089E-03      10   10    1         0.5092069697E-02      0.2546022022E-01
          0                 6           1            10   10     1       0.8811830267E-04      10   10    1         0.2288540042E-02      0.1139823739E-01
          0                 7           1            10   10     1       0.3960308382E-04      10   10    1         0.1028541882E-02      0.5105716366E-02
          0                 8           1            10   10     1       0.1779881900E-04      10   10    1         0.4622583205E-03      0.2287331389E-02
          0                 9           1            10   10     1       0.7999312003E-05      10   10    1         0.2077527465E-03      0.1024769687E-02

    ------------------------------------------------
       NWT REQUIRED            9 OUTER ITERATIONS 
       AND A TOTAL OF         14 INNER ITERATIONS.
    ------------------------------------------------

 NO OUTPUT CONTROL FOR STRESS PERIOD   11   TIME STEP   12
 
 SOLVING FOR HEAD 
                                                   Max.-Head-Change                         Max.-Flux-Residual
  Residual-Control   Outer-Iter.   Inner-Iter.     Column Row Layer    Maximum-Head-Change  Column Row Layer    Maximum-Flux-Residual          L2-NORM 
          0                 1           2             6   13     1       0.1042486087E-01       6   13    1         0.5540065100E+00      0.1528403835E+01
          0                 2           2            10   10     1       0.2158840165E-02      10   10    1         0.5606749078E-01      0.3462673099E+00
          0                 3           2            10   10     1       0.9702540786E-03      10   10    1         0.2519861729E-01      0.1306969439E+00
          0                 4           2            10   10     1       0.4360635198E-03      10   10    1         0.1132508786E-01      0.5698991380E-01
          0                 5           2            10   10     1       0.1959807093E-03      10   10    1         0.5089858796E-02      0.2542716605E-01
          0                 6           1            10   10     1       0.8807977256E-04      10   10    1         0.2287542529E-02      0.1138367047E-01
          0                 7           1            10   10     1       0.3958570086E-04      10   10    1         0.1028091835E-02      0.5099232427E-02
          0                 8           1            10   10     1       0.1779097577E-04      10   10    1         0.4620552688E-03      0.2284441707E-02
          0                 9           1            10   10     1       0.7995773933E-05      10   10    1         0.2076611427E-03      0.1023492175E-02

    ------------------------------------------------
       NWT REQUIRED            9 OUTER ITERATIONS 
       AND A TOTAL OF         14 INNER ITERATIONS.
    ------------------------------------------------

 NO OUTPUT CONTROL FOR STRESS PERIOD   11   TIME STEP   13
 
 SOLVING FOR HEAD 
                                                   Max.-Head-Change                         Max.-Flux-Residual
  Residual-Control   Outer-Iter.   Inner-Iter.     Column Row Layer    Maximum-Head-Change  Column Row Layer    Maximum-Flux-Residual          L2-NORM 
          0                 1           2             6   13     1       0.1025924232E-01       6   13    1         0.5451852674E+00      0.1520726987E+01
          0                 2           2            10   10     1       0.2157955440E-02      10   10    1         0.5604459175E-01      0.3475893490E+00
          0                 3           2            10   10     1       0.9698547979E-03      10   10    1         0.2518828269E-01      0.1305664895E+00
          0                 4           2            10   10     1       0.4358833258E-03      10   10    1         0.1132042381E-01      0.5691978480E-01
          0                 5           2            10   10     1       0.1958993899E-03      10   10    1         0.5087753940E-02      0.2539590771E-01
          0                 6           1            10   10     1       0.8804307502E-04      10   10    1         0.2286592639E-02      0.1136975831E-01
          0                 7           1            10   10     1       0.3956914025E-04      10   10    1         0.1027663168E-02      0.5093032548E-02
          0                 8           1            10   10     1       0.1778350295E-04      10   10    1         0.4618618260E-03      0.2281679498E-02
          0                 9           1            10   10     1       0.7992401435E-05      10   10    1         0.2075738460E-03      0.1022251165E-02

    ------------------------------------------------
       NWT REQUIRED            9 OUTER ITERATIONS 
       AND A TOTAL OF         14 INNER ITERATIONS.
    ------------------------------------------------

 NO OUTPUT CONTROL FOR STRESS PERIOD   11   TIME STEP   14
 
 SOLVING FOR HEAD 
     PET DIFF ERROR     6    7   -0.1155104974E-09    0.9999999440E-09
     PET DIFF ERROR     6    8   -0.1155263870E-09    0.9999999440E-09
                                                   Max.-Head-Change                         Max.-Flux-Residual
  Residual-Control   Outer-Iter.   Inner-Iter.     Column Row Layer    Maximum-Head-Change  Column Row Layer    Maximum-Flux-Residual          L2-NORM 
          0                 1           2             6   13     1       0.1004648253E-01       6   13    1         0.5338491285E+00      0.1507090762E+01
     PET DIFF ERROR     6    7   -0.1155104974E-09    0.9999999440E-09
     PET DIFF ERROR     6    8   -0.1155263870E-09    0.9999999440E-09
          0                 2           2            10   10     1       0.2157018154E-02      10   10    1         0.5602032634E-01      0.3467379591E+00
     PET DIFF ERROR     6    7   -0.1155104974E-09    0.9999999440E-09
     PET DIFF ERROR     6    8   -0.1155263870E-09    0.9999999440E-09
          0                 3           2            10   10     1       0.9694319231E-03      10   10    1         0.2517733472E-01      0.1304046187E+00
     PET DIFF ERROR     6    7   -0.1155104974E-09    0.9999999440E-09
     PET DIFF ERROR     6    8   -0.1155263870E-09    0.9999999440E-09
          0                 4           2            10   10     1       0.4356925408E-03      10   10    1         0.1131548444E-01      0.5685082267E-01
     PET DIFF ERROR     6    7   -0.1155104974E-09    0.9999999440E-09
     PET DIFF ERROR     6    8   -0.1155263870E-09    0.9999999440E-09
          0                 5           2            10   10     1       0.1958133169E-03      10   10    1         0.5085525496E-02      0.2536511171E-01
     PET DIFF ERROR     6    7   -0.1155104974E-09    0.9999999440E-09
     PET DIFF ERROR     6    8   -0.1155263870E-09    0.9999999440E-09
          0                 6           1            10   10     1       0.8800424353E-04      10   10    1         0.2285587271E-02      0.1135601943E-01
     PET DIFF ERROR     6    7   -0.1155104974E-09    0.9999999440E-09
     PET DIFF ERROR     6    8   -0.1155263870E-09    0.9999999440E-09
          0                 7           1            10   10     1       0.3955162172E-04      10   10    1         0.1027209602E-02      0.5086905329E-02
     PET DIFF ERROR     6    7   -0.1155104974E-09    0.9999999440E-09
     PET DIFF ERROR     6    8   -0.1155263870E-09    0.9999999440E-09
          0                 8           1            10   10     1       0.1777559994E-04      10   10    1         0.4616572078E-03      0.2278944576E-02
     PET DIFF ERROR     6    7   -0.1155104974E-09    0.9999999440E-09
     PET DIFF ERROR     6    8   -0.1155263870E-09    0.9999999440E-09
          0                 9           1            10   10     1       0.7988836352E-05      10   10    1         0.2074815373E-03      0.1021028801E-02

    ------------------------------------------------
       NWT REQUIRED            9 OUTER ITERATIONS 
       AND A TOTAL OF         14 INNER ITERATIONS.
    ------------------------------------------------

 OUTPUT CONTROL FOR STRESS PERIOD   11   TIME STEP   15
    PRINT BUDGET
    PRINT HEAD FOR ALL LAYERS
    SAVE HEAD FOR ALL LAYERS
    SAVE BUDGET
 UBUDSV SAVING "         STORAGE" ON UNIT102 AT TIME STEP    15, STRESS PERIOD   11
 UBUDSV SAVING "   CONSTANT HEAD" ON UNIT102 AT TIME STEP    15, STRESS PERIOD   11
 UBUDSV SAVING "FLOW RIGHT FACE " ON UNIT102 AT TIME STEP    15, STRESS PERIOD   11
 UBUDSV SAVING "FLOW FRONT FACE " ON UNIT102 AT TIME STEP    15, STRESS PERIOD   11

  HEAD DEP BOUNDS   PERIOD   11   STEP    15
 BOUNDARY      1   LAYER   1   ROW    13   COL     1   RATE   -0.286213    
 BOUNDARY      2   LAYER   1   ROW    14   COL     9   RATE    0.272792    



 STREAM LISTING     PERIOD     11   STEP       15

 LAYER ROW COL. STREAM  RCH.  FLOW INTO     FLOW TO   FLOW OUT OF   OVRLND.     DIRECT     STREAM       STREAM     STREAM     STREAM   STREAMBED  STREAMBED
                SEG.NO.  NO.  STRM. RCH.    AQUIFER    STRM. RCH.    RUNOFF     PRECIP       ET          HEAD       DEPTH      WIDTH   CONDCTNC.   GRADIENT

   1    1    1     1     1    7.0000E+00  1.1914E-01   6.8809E+00  0.000E+00  0.000E+00  0.000E+00  1.09385E+03  7.984E-01  6.970E+00  3.137E-02  1.266E+00
   1    2    2     1     2    6.8809E+00  1.8311E-01   6.6977E+00  0.000E+00  0.000E+00  0.000E+00  1.08885E+03  7.942E-01  6.894E+00  4.826E-02  1.265E+00
   1    3    3     1     3    6.6977E+00  1.5480E-01   6.5429E+00  0.000E+00  0.000E+00  0.000E+00  1.08321E+03  7.894E-01  6.809E+00  4.085E-02  1.263E+00
   1    3    4     1     4    6.5429E+00  1.4143E-01   6.4015E+00  0.000E+00  0.000E+00  0.000E+00  1.07819E+03  7.852E-01  6.732E+00  3.737E-02  1.262E+00
   1    4    5     2     1    4.4015E+00  2.6661E-01   4.1349E+00  0.000E+00  0.000E+00  0.000E+00  1.07235E+03  4.181E-01  1.200E+01  7.800E-02  1.139E+00
   1    5    6     2     2    4.1349E+00  2.0425E-01   3.9306E+00  0.000E+00  0.000E+00  0.000E+00  1.06691E+03  4.041E-01  1.200E+01  6.000E-02  1.135E+00
   1    6    6     2     3    3.9306E+00  2.0350E-01   3.7271E+00  0.000E+00  0.000E+00  0.000E+00  1.06218E+03  3.917E-01  1.200E+01  6.000E-02  1.131E+00
   1    7    6     2     4    3.7271E+00  2.0275E-01   3.5244E+00  0.000E+00  0.000E+00  0.000E+00  1.05745E+03  3.791E-01  1.200E+01  6.000E-02  1.126E+00
   1    8    6     2     5    3.5244E+00  2.0198E-01   3.3224E+00  0.000E+00  0.000E+00  0.000E+00  1.05272E+03  3.663E-01  1.200E+01  6.000E-02  1.122E+00
   1    3    5     3     1    2.0000E+00  2.8252E-01   1.7175E+00  0.000E+00  0.000E+00  0.000E+00  1.07555E+03  1.909E+00  9.636E+00  7.227E-02  1.955E+00
   1    3    6     3     2    1.7175E+00  2.4905E-01   1.4684E+00  0.000E+00  0.000E+00  0.000E+00  1.07264E+03  1.727E+00  8.909E+00  6.682E-02  1.864E+00
   1    3    7     3     3    1.4684E+00  1.9718E-01   1.2712E+00  0.000E+00  0.000E+00  0.000E+00  1.06987E+03  1.555E+00  8.218E+00  5.547E-02  1.777E+00
   1    4    8     3     4    1.2712E+00  2.2567E-01   1.0456E+00  0.000E+00  0.000E+00  0.000E+00  1.06682E+03  1.364E+00  7.455E+00  6.709E-02  1.682E+00
   1    5    8     3     5    1.0456E+00  1.5790E-01   8.8768E-01  0.000E+00  0.000E+00  0.000E+00  1.06362E+03  1.164E+00  6.655E+00  4.991E-02  1.582E+00
   1    6    8     3     6    8.8768E-01  5.5980E-02   8.3170E-01  0.000E+00  0.000E+00  0.000E+00  1.06158E+03  1.036E+00  6.145E+00  1.844E-02  1.518E+00
   1    5   10     4     1    1.0000E+01  9.0919E-02   9.9091E+00  0.000E+00  0.000E+00  0.000E+00  1.07836E+03  6.368E-01  1.000E+01  2.500E-02  1.212E+00
   1    5    9     4     2    9.9091E+00  1.8158E-01   9.7275E+00  0.000E+00  0.000E+00  0.000E+00  1.07154E+03  6.315E-01  1.000E+01  5.000E-02  1.211E+00
   1    6    8     4     3    9.7275E+00  1.2689E-01   9.6006E+00  0.000E+00  0.000E+00  0.000E+00  1.06381E+03  6.256E-01  1.000E+01  3.500E-02  1.209E+00
   1    6    8     5     1    1.0432E+01  2.2686E-01   1.0205E+01  0.000E+00  0.000E+00  0.000E+00  1.05868E+03  6.790E-01  1.542E+01  6.166E-02  1.226E+00
   1    7    7     5     2    1.0205E+01  2.7894E-01   9.9265E+00  0.000E+00  0.000E+00  0.000E+00  1.05417E+03  6.732E-01  1.519E+01  7.594E-02  1.224E+00
   1    8    7     5     3    9.9265E+00  1.9221E-01   9.7343E+00  0.000E+00  0.000E+00  0.000E+00  1.04992E+03  6.676E-01  1.497E+01  5.241E-02  1.223E+00
   1    8    6     5     4    9.7343E+00  1.3577E-01   9.5985E+00  0.000E+00  0.000E+00  0.000E+00  1.04691E+03  6.637E-01  1.482E+01  3.706E-02  1.221E+00
   1    9    6     6     1    1.2921E+01  2.2904E-01   1.2692E+01  0.000E+00  0.000E+00  0.000E+00  1.04354E+03  8.174E-01  1.200E+01  6.000E-02  1.272E+00
   1   10    7     6     2    1.2692E+01  2.2852E-01   1.2463E+01  0.000E+00  0.000E+00  0.000E+00  1.03899E+03  8.086E-01  1.200E+01  6.000E-02  1.270E+00
   1   11    7     6     3    1.2463E+01  2.2799E-01   1.2235E+01  0.000E+00  0.000E+00  0.000E+00  1.03444E+03  7.998E-01  1.200E+01  6.000E-02  1.267E+00
   1   12    7     6     4    1.2235E+01  2.2745E-01   1.2008E+01  0.000E+00  0.000E+00  0.000E+00  1.02988E+03  7.909E-01  1.200E+01  6.000E-02  1.264E+00
   1   13    7     6     5    1.2008E+01 -1.2850E-01   1.2136E+01  0.000E+00  0.000E+00  0.000E+00  1.02670E+03  7.889E-01  1.200E+01  2.400E-01 -1.785E-01
   1   14    9     7     1    1.5000E+02  1.1453E+00   1.4885E+02  0.000E+00  0.000E+00  0.000E+00  1.03987E+03  2.288E+00  5.530E+01  5.593E-01  6.825E-01
   1   13    8     7     2    1.4885E+02  1.6444E+00   1.4721E+02  0.000E+00  0.000E+00  0.000E+00  1.03478E+03  2.281E+00  5.526E+01  6.149E-01  8.915E-01
   1   13    7     7     3    1.4721E+02  1.3733E+00   1.4584E+02  0.000E+00  0.000E+00  0.000E+00  1.02969E+03  2.273E+00  5.523E+01  5.586E-01  8.196E-01
   1   13    6     8     1    1.5797E+02  7.8157E-01   1.5719E+02  0.000E+00  0.000E+00  0.000E+00  1.02474E+03  2.869E+00  4.161E+01  4.240E-01  6.145E-01
   1   13    5     8     2    1.5719E+02  3.7726E-02   1.5715E+02  0.000E+00  0.000E+00  0.000E+00  1.01849E+03  2.867E+00  4.157E+01  4.236E-01  2.969E-02
   1   13    4     8     3    1.5715E+02 -3.1672E+00   1.6032E+02  0.000E+00  0.000E+00  0.000E+00  1.01225E+03  2.877E+00  4.172E+01  4.251E+00 -2.483E-01
   1   13    3     8     4    1.6032E+02 -4.1529E+00   1.6447E+02  0.000E+00  0.000E+00  0.000E+00  1.00603E+03  2.902E+00  4.208E+01  4.288E+00 -3.228E-01
   1   13    2     8     5    1.6447E+02 -2.7073E+00   1.6718E+02  0.000E+00  0.000E+00  0.000E+00  9.99800E+02  2.925E+00  4.241E+01  4.322E+00 -2.088E-01
   1   13    1     8     6    1.6718E+02 -1.8689E+00   1.6905E+02  0.000E+00  0.000E+00  0.000E+00  9.94815E+02  2.940E+00  4.263E+01  2.606E+00 -2.390E-01
   1    6    8     9     1    0.0000E+00  0.0000E+00   0.0000E+00  0.000E+00  0.000E+00  0.000E+00  1.07850E+03  0.000E+00  4.000E+00  0.000E+00  1.000E+00



     PET DIFF ERROR     6    7   -0.1155104974E-09    0.9999999440E-09
     PET DIFF ERROR     6    8   -0.1155263870E-09    0.9999999440E-09
 UBDSV3 SAVING "     NETRECHARGE" ON UNIT 100 AT TIME STEP    15, STRESS PERIOD  11
 UBDSV3 SAVING "    NETDISCHARGE" ON UNIT 101 AT TIME STEP    15, STRESS PERIOD  11
 UBDSV3 SAVING "           GW ET" ON UNIT  61 AT TIME STEP    15, STRESS PERIOD  11
 UBDSV3 SAVING "    UZF RECHARGE" ON UNIT  61 AT TIME STEP    15, STRESS PERIOD  11
 UBDSV3 SAVING " SURFACE LEAKAGE" ON UNIT  61 AT TIME STEP    15, STRESS PERIOD  11
 UBDSV3 SAVING "       HORT+DUNN" ON UNIT  61 AT TIME STEP    15, STRESS PERIOD  11
 UBDSV3 SAVING "  STORAGE CHANGE" ON UNIT  61 AT TIME STEP    15, STRESS PERIOD  11


UNSATURATED ZONE PACKAGE VOLUMETRIC BUDGET FOR  TIME STEP    15 STRESS PERIOD   11
  ------------------------------------------------------------------------------



     CUMULATIVE VOLUMES      L**3       RATES FOR THIS TIME STEP      L**3/T
     ------------------                 ------------------------

           IN:                                      IN:
           ---                                      ---
        INFILTRATION =    17787597.4070          INFILTRATION =       0.0000E+00

          OUT:                                     OUT:
          ----                                     ----
              UZF ET =   544908025.6171                UZF ET =           0.0442
        UZF RECHARGE =   622496540.0413          UZF RECHARGE =          22.1077

            IN - OUT = -1149616968.2514              IN - OUT =         -22.1520

          STORAGE:                                 STORAGE:
          --------                                 --------
      STORAGE CHANGE = -1149591114.5061        STORAGE CHANGE =         -22.1520

 PERCENT DISCREPANCY IS DIFFERENCE BETWEEN IN-OUT MINUS CHANGE IN STORAGE
 DIVIDED BY THE AVERAGE OF IN AND OUT TIMES 100

 PERCENT DISCREPANCY =          -0.00     PERCENT DISCREPANCY =           0.00






1
              HEAD IN LAYER   1 AT END OF TIME STEP    15 IN STRESS PERIOD   11
  -----------------------------------------------------------------------------

           1       2       3       4       5       6       7       8       9      10
 ...................................................................................
   1  1036.04 1034.32 6999.00 6999.00 6999.00 6999.00 6999.00 6999.00 6999.00 6999.00
   2  1035.63 1034.02 1033.11 6999.00 6999.00 1034.81 1035.08 1035.20 6999.00 6999.00
   3  6999.00 1033.23 1032.57 1032.20 1032.72 1033.46 1034.25 1034.54 6999.00 6999.00
   4  1032.58 1032.46 1031.90 1031.36 1031.32 1031.36 1032.17 1033.57 1033.59 6999.00
   5  1032.09 1031.56 1030.96 1030.48 1030.51 1030.72 1030.91 1031.49 1032.28 1032.84
   6  1031.47 1030.70 1030.02 1029.59 1029.66 1030.02 1030.35 1030.98 1032.06 1033.59
   7  1030.91 1029.62 1028.94 1028.56 1028.70 1029.14 1029.64 1030.28 1031.77 6999.00
   8  6999.00 1028.07 1027.58 1027.31 1027.51 1028.04 1028.54 1029.81 1031.24 6999.00
   9  6999.00 1025.73 1025.61 1025.63 1025.98 1026.66 1027.27 1028.71 1030.50 6999.00
  10  6999.00 1022.55 1022.88 1023.50 1024.25 1025.30 1026.30 1028.04 1030.25 1031.01
  11  6999.00 1017.53 1018.42 1020.69 1022.31 1024.08 1025.72 1028.15 1030.94 6999.00
  12  1003.32 1009.08 1012.81 1016.82 1020.08 1023.09 1025.64 1029.40 1033.09 6999.00
  13   995.53 1000.43 1007.00 1013.00 1018.40 1022.90 1027.23 1032.11 1035.30 6999.00
  14  6999.00 1007.60 1010.31 1014.88 1019.59 1024.01 1028.73 1034.01 1037.82 6999.00
  15  6999.00 6999.00 1014.88 1017.58 1021.02 1023.89 6999.00 6999.00 6999.00 6999.00

 HEAD WILL BE SAVED ON UNIT   62 AT END OF TIME STEP   15, STRESS PERIOD   11
1
  VOLUMETRIC BUDGET FOR ENTIRE MODEL AT END OF TIME STEP   15, STRESS PERIOD  11
  ------------------------------------------------------------------------------

     CUMULATIVE VOLUMES      L**3       RATES FOR THIS TIME STEP      L**3/T
     ------------------                 ------------------------

           IN:                                      IN:
           ---                                      ---
             STORAGE     =    32619768.0000               STORAGE     =       1.4966E-02
       CONSTANT HEAD     =           0.0000         CONSTANT HEAD     =           0.0000
               WELLS     =           0.0000                 WELLS     =           0.0000
     HEAD DEP BOUNDS     =     6912303.0000       HEAD DEP BOUNDS     =           0.2728
      STREAM LEAKAGE     =   290887360.0000        STREAM LEAKAGE     =           9.9743
        UZF RECHARGE     =   622496576.0000          UZF RECHARGE     =          22.1077
               GW ET     =           0.0000                 GW ET     =           0.0000
     SURFACE LEAKAGE     =           0.0000       SURFACE LEAKAGE     =           0.0000
    SUPPLEMENTARY WELLS  =           0.0000      SUPPLEMENTARY WELLS  =           0.0000

                TOTAL IN =   952915968.0000                  TOTAL IN =          32.3698

          OUT:                                     OUT:
          ----                                     ----
             STORAGE     =   609207104.0000               STORAGE     =          19.8806
       CONSTANT HEAD     =           0.0000         CONSTANT HEAD     =           0.0000
               WELLS     =           0.0000                 WELLS     =           0.0000
     HEAD DEP BOUNDS     =     7208914.5000       HEAD DEP BOUNDS     =           0.2862
      STREAM LEAKAGE     =   252228752.0000        STREAM LEAKAGE     =          12.0248
        UZF RECHARGE     =           0.0000          UZF RECHARGE     =           0.0000
               GW ET     =    84135408.0000                 GW ET     =           0.1750
     SURFACE LEAKAGE     =           0.0000       SURFACE LEAKAGE     =           0.0000
    SUPPLEMENTARY WELLS  =       36673.0352      SUPPLEMENTARY WELLS  =           0.0000

               TOTAL OUT =   952816832.0000                 TOTAL OUT =          32.3666

                IN - OUT =       99136.0000                  IN - OUT =       3.2272E-03

     PERCENT DISCREPANCY =           0.01         PERCENT DISCREPANCY =           0.01






         TIME SUMMARY AT END OF TIME STEP   15 IN STRESS PERIOD   11
                    SECONDS     MINUTES      HOURS       DAYS        YEARS
                    -----------------------------------------------------------
   TIME STEP LENGTH  87600.      1460.0      24.333      1.0139     2.77588E-03
 STRESS PERIOD TIME 1.31400E+06  21900.      365.00      15.208     4.16381E-02
         TOTAL TIME 2.50524E+07 4.17540E+05  6959.0      289.96     0.79386    
1
 
 SOLVING FOR HEAD 
                                                   Max.-Head-Change                         Max.-Flux-Residual
  Residual-Control   Outer-Iter.   Inner-Iter.     Column Row Layer    Maximum-Head-Change  Column Row Layer    Maximum-Flux-Residual          L2-NORM 
          0                 1           2             6   13     1       0.9839061039E-02       6   13    1         0.5227969013E+00      0.1494282748E+01
          0                 2           2            10   10     1       0.2156125800E-02      10   10    1         0.5599723103E-01      0.3459306634E+00
          0                 3           2            10   10     1       0.9690291755E-03      10   10    1         0.2516691089E-01      0.1302453698E+00
          0                 4           2            10   10     1       0.4355107719E-03      10   10    1         0.1131077985E-01      0.5678259774E-01
          0                 5           2            10   10     1       0.1957312823E-03      10   10    1         0.5083402215E-02      0.2533461581E-01
          0                 6           1            10   10     1       0.8796722084E-04      10   10    1         0.2284629009E-02      0.1134240542E-01
          0                 7           1            10   10     1       0.3953491356E-04      10   10    1         0.1026777138E-02      0.5080829716E-02
          0                 8           1            10   10     1       0.1776805984E-04      10   10    1         0.4614620412E-03      0.2276232837E-02
          0                 9           1            10   10     1       0.7985433592E-05      10   10    1         0.2073934611E-03      0.1019818513E-02

    ------------------------------------------------
       NWT REQUIRED            9 OUTER ITERATIONS 
       AND A TOTAL OF         14 INNER ITERATIONS.
    ------------------------------------------------

 NO OUTPUT CONTROL FOR STRESS PERIOD   11   TIME STEP   16
 
 SOLVING FOR HEAD 
                                                   Max.-Head-Change                         Max.-Flux-Residual
  Residual-Control   Outer-Iter.   Inner-Iter.     Column Row Layer    Maximum-Head-Change  Column Row Layer    Maximum-Flux-Residual          L2-NORM 
          0                 1           2             6   13     1       0.9637042111E-02       6   13    1         0.5120321239E+00      0.1482074501E+01
          0                 2           2            10   10     1       0.2155180950E-02      10   10    1         0.5597276864E-01      0.3451394088E+00
          0                 3           2            10   10     1       0.9686029118E-03      10   10    1         0.2515587467E-01      0.1300855890E+00
          0                 4           2            10   10     1       0.4353184692E-03      10   10    1         0.1130580095E-01      0.5671445814E-01
          0                 5           2            10   10     1       0.1956445290E-03      10   10    1         0.5081156059E-02      0.2530422194E-01
          0                 6           1            10   10     1       0.8792808497E-04      10   10    1         0.2283615710E-02      0.1132884738E-01
          0                 7           1            10   10     1       0.3951725897E-04      10   10    1         0.1026320020E-02      0.5074781208E-02
          0                 8           1            10   10     1       0.1776009556E-04      10   10    1         0.4612558291E-03      0.2273533955E-02
          0                 9           1            10   10     1       0.7981841247E-05      10   10    1         0.2073004418E-03      0.1018624108E-02

    ------------------------------------------------
       NWT REQUIRED            9 OUTER ITERATIONS 
       AND A TOTAL OF         14 INNER ITERATIONS.
    ------------------------------------------------

 NO OUTPUT CONTROL FOR STRESS PERIOD   11   TIME STEP   17
 
 SOLVING FOR HEAD 
                                                   Max.-Head-Change                         Max.-Flux-Residual
  Residual-Control   Outer-Iter.   Inner-Iter.     Column Row Layer    Maximum-Head-Change  Column Row Layer    Maximum-Flux-Residual          L2-NORM 
          0                 1           2             6   13     1       0.9440165667E-02       6   13    1         0.5015413140E+00      0.1470461607E+01
          0                 2           2            10   10     1       0.2154232341E-02      10   10    1         0.5594821071E-01      0.3443758994E+00
          0                 3           2            10   10     1       0.9681749158E-03      10   10    1         0.2514479438E-01      0.1299293654E+00
          0                 4           2            10   10     1       0.4351253683E-03      10   10    1         0.1130080173E-01      0.5664765969E-01
          0                 5           2            10   10     1       0.1955574088E-03      10   10    1         0.5078900551E-02      0.2527436821E-01
          0                 6           1            10   10     1       0.8788878002E-04      10   10    1         0.2282598102E-02      0.1131550694E-01
          0                 7           1            10   10     1       0.3949952635E-04      10   10    1         0.1025860918E-02      0.5068820520E-02
          0                 8           1            10   10     1       0.1775209576E-04      10   10    1         0.4610487086E-03      0.2270870446E-02
          0                 9           1            10   10     1       0.7978232144E-05      10   10    1         0.2072070009E-03      0.1017424109E-02

    ------------------------------------------------
       NWT REQUIRED            9 OUTER ITERATIONS 
       AND A TOTAL OF         14 INNER ITERATIONS.
    ------------------------------------------------

 NO OUTPUT CONTROL FOR STRESS PERIOD   11   TIME STEP   18
 
 SOLVING FOR HEAD 
                                                   Max.-Head-Change                         Max.-Flux-Residual
  Residual-Control   Outer-Iter.   Inner-Iter.     Column Row Layer    Maximum-Head-Change  Column Row Layer    Maximum-Flux-Residual          L2-NORM 
          0                 1           2             6   13     1       0.9248280333E-02       6   13    1         0.4913164711E+00      0.1459686534E+01
          0                 2           2            10   10     1       0.2153280219E-02      10   10    1         0.5592355897E-01      0.3437140108E+00
          0                 3           2            10   10     1       0.9677453946E-03      10   10    1         0.2513367334E-01      0.1297979889E+00
          0                 4           2            10   10     1       0.4349316062E-03      10   10    1         0.1129578482E-01      0.5659017700E-01
          0                 5           2            10   10     1       0.1954700018E-03      10   10    1         0.5076637371E-02      0.2524823870E-01
          0                 6           1            10   10     1       0.8784935101E-04      10   10    1         0.2281577179E-02      0.1130366537E-01
          0                 7           1            10   10     1       0.3948174045E-04      10   10    1         0.1025400386E-02      0.5063467296E-02
          0                 8           1            10   10     1       0.1774407294E-04      10   10    1         0.4608409684E-03      0.2268460773E-02
          0                 9           1            10   10     1       0.7974613288E-05      10   10    1         0.2071132942E-03      0.1016330619E-02

    ------------------------------------------------
       NWT REQUIRED            9 OUTER ITERATIONS 
       AND A TOTAL OF         14 INNER ITERATIONS.
    ------------------------------------------------

 NO OUTPUT CONTROL FOR STRESS PERIOD   11   TIME STEP   19
 
 SOLVING FOR HEAD 
                                                   Max.-Head-Change                         Max.-Flux-Residual
  Residual-Control   Outer-Iter.   Inner-Iter.     Column Row Layer    Maximum-Head-Change  Column Row Layer    Maximum-Flux-Residual          L2-NORM 
          0                 1           2             6   13     1       0.9061251934E-02       6   13    1         0.4813500308E+00      0.1449459072E+01
          0                 2           2            10   10     1       0.2152373158E-02      10   10    1         0.5590008067E-01      0.3430303942E+00
          0                 3           2            10   10     1       0.9673360596E-03      10   10    1         0.2512307795E-01      0.1296431688E+00
          0                 4           2            10   10     1       0.4347468870E-03      10   10    1         0.1129100339E-01      0.5652270060E-01
          0                 5           2            10   10     1       0.1953866460E-03      10   10    1         0.5074479676E-02      0.2521804340E-01
          0                 6           1            10   10     1       0.8781173681E-04      10   10    1         0.2280603504E-02      0.1129018280E-01
          0                 7           1            10   10     1       0.3946476716E-04      10   10    1         0.1024961017E-02      0.5057444963E-02
          0                 8           1            10   10     1       0.1773641429E-04      10   10    1         0.4606427116E-03      0.2265764078E-02
          0                 9           1            10   10     1       0.7971157503E-05      10   10    1         0.2070238353E-03      0.1015135224E-02

    ------------------------------------------------
       NWT REQUIRED            9 OUTER ITERATIONS 
       AND A TOTAL OF         14 INNER ITERATIONS.
    ------------------------------------------------

 NO OUTPUT CONTROL FOR STRESS PERIOD   11   TIME STEP   20
 
 SOLVING FOR HEAD 
                                                   Max.-Head-Change                         Max.-Flux-Residual
  Residual-Control   Outer-Iter.   Inner-Iter.     Column Row Layer    Maximum-Head-Change  Column Row Layer    Maximum-Flux-Residual          L2-NORM 
          0                 1           2             6   13     1       0.8878947577E-02       6   13    1         0.4716350702E+00      0.1439689499E+01
          0                 2           2            10   10     1       0.2151413495E-02      10   10    1         0.5587523480E-01      0.3423588362E+00
          0                 3           2            10   10     1       0.9669031134E-03      10   10    1         0.2511186871E-01      0.1294886555E+00
          0                 4           2            10   10     1       0.4345515698E-03      10   10    1         0.1128594643E-01      0.5645562811E-01
          0                 5           2            10   10     1       0.1952985329E-03      10   10    1         0.5072198311E-02      0.2518808640E-01
          0                 6           1            10   10     1       0.8777198767E-04      10   10    1         0.2279574329E-02      0.1127683469E-01
          0                 7           1            10   10     1       0.3944683620E-04      10   10    1         0.1024496742E-02      0.5051476318E-02
          0                 8           1            10   10     1       0.1772832570E-04      10   10    1         0.4604332747E-03      0.2263099470E-02
          0                 9           1            10   10     1       0.7967508633E-05      10   10    1         0.2069293572E-03      0.1013943725E-02

    ------------------------------------------------
       NWT REQUIRED            9 OUTER ITERATIONS 
       AND A TOTAL OF         14 INNER ITERATIONS.
    ------------------------------------------------

 NO OUTPUT CONTROL FOR STRESS PERIOD   11   TIME STEP   21
 
 SOLVING FOR HEAD 
                                                   Max.-Head-Change                         Max.-Flux-Residual
  Residual-Control   Outer-Iter.   Inner-Iter.     Column Row Layer    Maximum-Head-Change  Column Row Layer    Maximum-Flux-Residual          L2-NORM 
          0                 1           2             6   13     1       0.8701233333E-02       6   13    1         0.4621646887E+00      0.1430216866E+01
          0                 2           2            10   10     1       0.2150450210E-02      10   10    1         0.5585029458E-01      0.3415824573E+00
          0                 3           2            10   10     1       0.9664685457E-03      10   10    1         0.2510061723E-01      0.1293321179E+00
          0                 4           2            10   10     1       0.4343555267E-03      10   10    1         0.1128087056E-01      0.5638889590E-01
          0                 5           2            10   10     1       0.1952100951E-03      10   10    1         0.5069908479E-02      0.2515830303E-01
          0                 6           1            10   10     1       0.8773209295E-04      10   10    1         0.2278541355E-02      0.1126351946E-01
          0                 7           1            10   10     1       0.3942883996E-04      10   10    1         0.1024030764E-02      0.5045545729E-02
          0                 8           1            10   10     1       0.1772020760E-04      10   10    1         0.4602230708E-03      0.2260450610E-02
          0                 9           1            10   10     1       0.7963846758E-05      10   10    1         0.2068345376E-03      0.1012758975E-02

    ------------------------------------------------
       NWT REQUIRED            9 OUTER ITERATIONS 
       AND A TOTAL OF         14 INNER ITERATIONS.
    ------------------------------------------------

 NO OUTPUT CONTROL FOR STRESS PERIOD   11   TIME STEP   22
 
 SOLVING FOR HEAD 
                                                   Max.-Head-Change                         Max.-Flux-Residual
  Residual-Control   Outer-Iter.   Inner-Iter.     Column Row Layer    Maximum-Head-Change  Column Row Layer    Maximum-Flux-Residual          L2-NORM 
          0                 1           2             6   13     1       0.8527840618E-02       6   13    1         0.4529386359E+00      0.1422034823E+01
          0                 2           2            10   10     1       0.2149483334E-02      10   10    1         0.5582526080E-01      0.3409741574E+00
          0                 3           2            10   10     1       0.9660323705E-03      10   10    1         0.2508932386E-01      0.1291800310E+00
          0                 4           2            10   10     1       0.4341587639E-03      10   10    1         0.1127577594E-01      0.5632290053E-01
          0                 5           2            10   10     1       0.1951213357E-03      10   10    1         0.5067610257E-02      0.2512880514E-01
          0                 6           1            10   10     1       0.8769205393E-04      10   10    1         0.2277504625E-02      0.1125070483E-01
          0                 7           1            10   10     1       0.3941077894E-04      10   10    1         0.1023563104E-02      0.5040554084E-02
          0                 8           1            10   10     1       0.1771206048E-04      10   10    1         0.4600121185E-03      0.2257830162E-02
          0                 9           1            10   10     1       0.7960172376E-05      10   10    1         0.2067393853E-03      0.1011586490E-02

    ------------------------------------------------
       NWT REQUIRED            9 OUTER ITERATIONS 
       AND A TOTAL OF         14 INNER ITERATIONS.
    ------------------------------------------------

 NO OUTPUT CONTROL FOR STRESS PERIOD   11   TIME STEP   23
 
 SOLVING FOR HEAD 
                                                   Max.-Head-Change                         Max.-Flux-Residual
  Residual-Control   Outer-Iter.   Inner-Iter.     Column Row Layer    Maximum-Head-Change  Column Row Layer    Maximum-Flux-Residual          L2-NORM 
          0                 1           2             6   13     1       0.8357550126E-02       6   13    1         0.4439167078E+00      0.1413304136E+01
          0                 2           2            10   10     1       0.2148512900E-02      10   10    1         0.5580013426E-01      0.3403539629E+00
          0                 3           2            10   10     1       0.9655946037E-03      10   10    1         0.2507798899E-01      0.1290301027E+00
          0                 4           2            10   10     1       0.4339612889E-03      10   10    1         0.1127066274E-01      0.5625718856E-01
          0                 5           2            10   10     1       0.1950322572E-03      10   10    1         0.5065303727E-02      0.2509937505E-01
          0                 6           1            10   10     1       0.8765187309E-04      10   10    1         0.2276464190E-02      0.1123719348E-01
          0                 7           1            10   10     1       0.3939265465E-04      10   10    1         0.1023093785E-02      0.5033787837E-02
          0                 8           1            10   10     1       0.1770388535E-04      10   10    1         0.4598004207E-03      0.2255199066E-02
          0                 9           1            10   10     1       0.7956484489E-05      10   10    1         0.2066438950E-03      0.1010412896E-02

    ------------------------------------------------
       NWT REQUIRED            9 OUTER ITERATIONS 
       AND A TOTAL OF         14 INNER ITERATIONS.
    ------------------------------------------------

 NO OUTPUT CONTROL FOR STRESS PERIOD   11   TIME STEP   24
 
 SOLVING FOR HEAD 
                                                   Max.-Head-Change                         Max.-Flux-Residual
  Residual-Control   Outer-Iter.   Inner-Iter.     Column Row Layer    Maximum-Head-Change  Column Row Layer    Maximum-Flux-Residual          L2-NORM 
          0                 1           2             6   13     1       0.8191587405E-02       6   13    1         0.4350605053E+00      0.1405454470E+01
          0                 2           2            10   10     1       0.2147538743E-02      10   10    1         0.5577491300E-01      0.3397747599E+00
          0                 3           2            10   10     1       0.9651551218E-03      10   10    1         0.2506661047E-01      0.1288799708E+00
          0                 4           2            10   10     1       0.4337630254E-03      10   10    1         0.1126552945E-01      0.5619109745E-01
          0                 5           2            10   10     1       0.1949428162E-03      10   10    1         0.5062987947E-02      0.2506978798E-01
          0                 6           1            10   10     1       0.8761152492E-04      10   10    1         0.2275419489E-02      0.1122397073E-01
          0                 7           1            10   10     1       0.3937445307E-04      10   10    1         0.1022622508E-02      0.5027879713E-02
          0                 8           1            10   10     1       0.1769567496E-04      10   10    1         0.4595878301E-03      0.2252558997E-02
          0                 9           1            10   10     1       0.7952781095E-05      10   10    1         0.2065479950E-03      0.1009233671E-02

    ------------------------------------------------
       NWT REQUIRED            9 OUTER ITERATIONS 
       AND A TOTAL OF         14 INNER ITERATIONS.
    ------------------------------------------------

 NO OUTPUT CONTROL FOR STRESS PERIOD   11   TIME STEP   25
 
 SOLVING FOR HEAD 
                                                   Max.-Head-Change                         Max.-Flux-Residual
  Residual-Control   Outer-Iter.   Inner-Iter.     Column Row Layer    Maximum-Head-Change  Column Row Layer    Maximum-Flux-Residual          L2-NORM 
          0                 1           2             6   13     1       0.8029982912E-02       6   13    1         0.4264378090E+00      0.1397655438E+01
          0                 2           2            10   10     1       0.2146561115E-02      10   10    1         0.5574959896E-01      0.3391765999E+00
          0                 3           2            10   10     1       0.9647141360E-03      10   10    1         0.2505519170E-01      0.1287305531E+00
          0                 4           2            10   10     1       0.4335641101E-03      10   10    1         0.1126037872E-01      0.5612599930E-01
          0                 5           2            10   10     1       0.1948530934E-03      10   10    1         0.5060664619E-02      0.2504066744E-01
          0                 6           1            10   10     1       0.8757105521E-04      10   10    1         0.2274371536E-02      0.1121095481E-01
          0                 7           1            10   10     1       0.3935619996E-04      10   10    1         0.1022149833E-02      0.5022063152E-02
          0                 8           1            10   10     1       0.1768744180E-04      10   10    1         0.4593746307E-03      0.2249959083E-02
          0                 9           1            10   10     1       0.7949067946E-05      10   10    1         0.2064518378E-03      0.1008070867E-02

    ------------------------------------------------
       NWT REQUIRED            9 OUTER ITERATIONS 
       AND A TOTAL OF         14 INNER ITERATIONS.
    ------------------------------------------------

 NO OUTPUT CONTROL FOR STRESS PERIOD   11   TIME STEP   26
 
 SOLVING FOR HEAD 
                                                   Max.-Head-Change                         Max.-Flux-Residual
  Residual-Control   Outer-Iter.   Inner-Iter.     Column Row Layer    Maximum-Head-Change  Column Row Layer    Maximum-Flux-Residual          L2-NORM 
          0                 1           2             6   13     1       0.7872692952E-02       6   13    1         0.4180460648E+00      0.1390632682E+01
          0                 2           2            10   10     1       0.2145580027E-02      10   10    1         0.5572419472E-01      0.3386466459E+00
          0                 3           2            10   10     1       0.9642716023E-03      10   10    1         0.2504373258E-01      0.1285849456E+00
          0                 4           2            10   10     1       0.4333645030E-03      10   10    1         0.1125520994E-01      0.5606112522E-01
          0                 5           2            10   10     1       0.1947630611E-03      10   10    1         0.5058333222E-02      0.2501156043E-01
          0                 6           1            10   10     1       0.8753044693E-04      10   10    1         0.2273319967E-02      0.1119793730E-01
          0                 7           1            10   10     1       0.3933788433E-04      10   10    1         0.1021675538E-02      0.5016245198E-02
          0                 8           1            10   10     1       0.1767918138E-04      10   10    1         0.4591607138E-03      0.2247360278E-02
          0                 9           1            10   10     1       0.7945342292E-05      10   10    1         0.2063553569E-03      0.1006907947E-02

    ------------------------------------------------
       NWT REQUIRED            9 OUTER ITERATIONS 
       AND A TOTAL OF         14 INNER ITERATIONS.
    ------------------------------------------------

 NO OUTPUT CONTROL FOR STRESS PERIOD   11   TIME STEP   27
 
 SOLVING FOR HEAD 
                                                   Max.-Head-Change                         Max.-Flux-Residual
  Residual-Control   Outer-Iter.   Inner-Iter.     Column Row Layer    Maximum-Head-Change  Column Row Layer    Maximum-Flux-Residual          L2-NORM 
          0                 1           2             6   13     1       0.7719481481E-02       6   13    1         0.4098723486E+00      0.1383970832E+01
          0                 2           2            10   10     1       0.2144595316E-02      10   10    1         0.5569869835E-01      0.3393457815E+00
          0                 3           2            10   10     1       0.9638274001E-03      10   10    1         0.2503223099E-01      0.1284629237E+00
          0                 4           2            10   10     1       0.4331641280E-03      10   10    1         0.1125002160E-01      0.5599693804E-01
          0                 5           2            10   10     1       0.1946726758E-03      10   10    1         0.5055992819E-02      0.2498262223E-01
          0                 6           1            10   10     1       0.8748967683E-04      10   10    1         0.2272264262E-02      0.1118498968E-01
          0                 7           1            10   10     1       0.3931949442E-04      10   10    1         0.1021199341E-02      0.5010454660E-02
          0                 8           1            10   10     1       0.1767088670E-04      10   10    1         0.4589459210E-03      0.2244770319E-02
          0                 9           1            10   10     1       0.7941600631E-05      10   10    1         0.2062584711E-03      0.1005752103E-02

    ------------------------------------------------
       NWT REQUIRED            9 OUTER ITERATIONS 
       AND A TOTAL OF         14 INNER ITERATIONS.
    ------------------------------------------------

 NO OUTPUT CONTROL FOR STRESS PERIOD   11   TIME STEP   28
 
 SOLVING FOR HEAD 
                                                   Max.-Head-Change                         Max.-Flux-Residual
  Residual-Control   Outer-Iter.   Inner-Iter.     Column Row Layer    Maximum-Head-Change  Column Row Layer    Maximum-Flux-Residual          L2-NORM 
          0                 1           2             6   13     1       0.7563421495E-02       6   13    1         0.4018439528E+00      0.1375805182E+01
          0                 2           2            10   10     1       0.2143607041E-02      10   10    1         0.5567310901E-01      0.3374682163E+00
          0                 3           2            10   10     1       0.9633816037E-03      10   10    1         0.2502068782E-01      0.1282965364E+00
          0                 4           2            10   10     1       0.4329630390E-03      10   10    1         0.1124481465E-01      0.5593457017E-01
          0                 5           2            10   10     1       0.1945819712E-03      10   10    1         0.5053644102E-02      0.2495469899E-01
          0                 6           1            10   10     1       0.8744876391E-04      10   10    1         0.2271204837E-02      0.1117244401E-01
          0                 7           1            10   10     1       0.3930104072E-04      10   10    1         0.1020721480E-02      0.5004822340E-02
          0                 8           1            10   10     1       0.1766256326E-04      10   10    1         0.4587303817E-03      0.2242244858E-02
          0                 9           1            10   10     1       0.7937846464E-05      10   10    1         0.2061612554E-03      0.1004625054E-02

    ------------------------------------------------
       NWT REQUIRED            9 OUTER ITERATIONS 
       AND A TOTAL OF         14 INNER ITERATIONS.
    ------------------------------------------------

 NO OUTPUT CONTROL FOR STRESS PERIOD   11   TIME STEP   29
 
 SOLVING FOR HEAD 
                                                   Max.-Head-Change                         Max.-Flux-Residual
  Residual-Control   Outer-Iter.   Inner-Iter.     Column Row Layer    Maximum-Head-Change  Column Row Layer    Maximum-Flux-Residual          L2-NORM 
          0                 1           2             6   13     1       0.7186647465E-02       6   13    1         0.3826392397E+00      0.1318657963E+01
          0                 2           2            10   10     1       0.2142615235E-02      10   10    1         0.5564742763E-01      0.3334030405E+00
          0                 3           2            10   10     1       0.9629342273E-03      10   10    1         0.2500910348E-01      0.1279183009E+00
          0                 4           2            10   10     1       0.4327612442E-03      10   10    1         0.1123958930E-01      0.5584411366E-01
          0                 5           2            10   10     1       0.1944909508E-03      10   10    1         0.5051287145E-02      0.2491918487E-01
          0                 6           1            10   10     1       0.8740770918E-04      10   10    1         0.2270141722E-02      0.1115692339E-01
          0                 7           1            10   10     1       0.3928252400E-04      10   10    1         0.1020241973E-02      0.4997920707E-02
          0                 8           1            10   10     1       0.1765421130E-04      10   10    1         0.4585141025E-03      0.2239163972E-02
          0                 9           1            10   10     1       0.7934079792E-05      10   10    1         0.2060637117E-03      0.1003242839E-02

    ------------------------------------------------
       NWT REQUIRED            9 OUTER ITERATIONS 
       AND A TOTAL OF         14 INNER ITERATIONS.
    ------------------------------------------------

 NO OUTPUT CONTROL FOR STRESS PERIOD   11   TIME STEP   30



 STREAM LISTING     PERIOD     11   STEP       30

 LAYER ROW COL. STREAM  RCH.  FLOW INTO     FLOW TO   FLOW OUT OF   OVRLND.     DIRECT     STREAM       STREAM     STREAM     STREAM   STREAMBED  STREAMBED
                SEG.NO.  NO.  STRM. RCH.    AQUIFER    STRM. RCH.    RUNOFF     PRECIP       ET          HEAD       DEPTH      WIDTH   CONDCTNC.   GRADIENT

   1    1    1     1     1    4.3470E+00  9.1790E-02   4.2552E+00  0.000E+00  0.000E+00  0.000E+00  1.09376E+03  7.122E-01  5.495E+00  2.473E-02  1.237E+00
   1    2    2     1     2    4.2552E+00  1.4068E-01   4.1146E+00  0.000E+00  0.000E+00  0.000E+00  1.08877E+03  7.076E-01  5.420E+00  3.794E-02  1.236E+00
   1    3    3     1     3    4.1146E+00  1.1854E-01   3.9960E+00  0.000E+00  0.000E+00  0.000E+00  1.08312E+03  7.023E-01  5.336E+00  3.202E-02  1.234E+00
   1    3    4     1     4    3.9960E+00  1.0820E-01   3.8878E+00  0.000E+00  0.000E+00  0.000E+00  1.07810E+03  6.964E-01  5.274E+00  2.927E-02  1.232E+00
   1    4    5     2     1    1.8878E+00  2.5317E-01   1.6347E+00  0.000E+00  0.000E+00  0.000E+00  1.07218E+03  2.458E-01  1.200E+01  7.800E-02  1.082E+00
   1    5    6     2     2    1.6347E+00  1.9360E-01   1.4411E+00  0.000E+00  0.000E+00  0.000E+00  1.06674E+03  2.266E-01  1.200E+01  6.000E-02  1.076E+00
   1    6    6     2     3    1.4411E+00  1.9255E-01   1.2485E+00  0.000E+00  0.000E+00  0.000E+00  1.06200E+03  2.091E-01  1.200E+01  6.000E-02  1.070E+00
   1    7    6     2     4    1.2485E+00  1.9144E-01   1.0571E+00  0.000E+00  0.000E+00  0.000E+00  1.05727E+03  1.906E-01  1.200E+01  6.000E-02  1.064E+00
   1    8    6     2     5    1.0571E+00  1.9026E-01   8.6681E-01  0.000E+00  0.000E+00  0.000E+00  1.05253E+03  1.710E-01  1.200E+01  6.000E-02  1.057E+00
   1    3    5     3     1    2.0000E+00  2.8252E-01   1.7175E+00  0.000E+00  0.000E+00  0.000E+00  1.07555E+03  1.909E+00  9.636E+00  7.227E-02  1.955E+00
   1    3    6     3     2    1.7175E+00  2.4905E-01   1.4684E+00  0.000E+00  0.000E+00  0.000E+00  1.07264E+03  1.727E+00  8.909E+00  6.682E-02  1.864E+00
   1    3    7     3     3    1.4684E+00  1.9718E-01   1.2712E+00  0.000E+00  0.000E+00  0.000E+00  1.06987E+03  1.555E+00  8.218E+00  5.547E-02  1.777E+00
   1    4    8     3     4    1.2712E+00  2.2567E-01   1.0456E+00  0.000E+00  0.000E+00  0.000E+00  1.06682E+03  1.364E+00  7.455E+00  6.709E-02  1.682E+00
   1    5    8     3     5    1.0456E+00  1.5790E-01   8.8768E-01  0.000E+00  0.000E+00  0.000E+00  1.06362E+03  1.164E+00  6.655E+00  4.991E-02  1.582E+00
   1    6    8     3     6    8.8768E-01  5.5980E-02   8.3170E-01  0.000E+00  0.000E+00  0.000E+00  1.06158E+03  1.036E+00  6.145E+00  1.844E-02  1.518E+00
   1    5   10     4     1    1.0000E+01  9.0919E-02   9.9091E+00  0.000E+00  0.000E+00  0.000E+00  1.07836E+03  6.368E-01  1.000E+01  2.500E-02  1.212E+00
   1    5    9     4     2    9.9091E+00  1.8158E-01   9.7275E+00  0.000E+00  0.000E+00  0.000E+00  1.07154E+03  6.315E-01  1.000E+01  5.000E-02  1.211E+00
   1    6    8     4     3    9.7275E+00  1.2689E-01   9.6006E+00  0.000E+00  0.000E+00  0.000E+00  1.06381E+03  6.256E-01  1.000E+01  3.500E-02  1.209E+00
   1    6    8     5     1    1.0432E+01  2.2686E-01   1.0205E+01  0.000E+00  0.000E+00  0.000E+00  1.05868E+03  6.790E-01  1.542E+01  6.166E-02  1.226E+00
   1    7    7     5     2    1.0205E+01  2.7894E-01   9.9265E+00  0.000E+00  0.000E+00  0.000E+00  1.05417E+03  6.732E-01  1.519E+01  7.594E-02  1.224E+00
   1    8    7     5     3    9.9265E+00  1.9221E-01   9.7343E+00  0.000E+00  0.000E+00  0.000E+00  1.04992E+03  6.676E-01  1.497E+01  5.241E-02  1.223E+00
   1    8    6     5     4    9.7343E+00  1.3577E-01   9.5985E+00  0.000E+00  0.000E+00  0.000E+00  1.04691E+03  6.637E-01  1.482E+01  3.706E-02  1.221E+00
   1    9    6     6     1    1.0465E+01  2.2317E-01   1.0242E+01  0.000E+00  0.000E+00  0.000E+00  1.04345E+03  7.195E-01  1.200E+01  6.000E-02  1.240E+00
   1   10    7     6     2    1.0242E+01  2.2261E-01   1.0020E+01  0.000E+00  0.000E+00  0.000E+00  1.03889E+03  7.102E-01  1.200E+01  6.000E-02  1.237E+00
   1   11    7     6     3    1.0020E+01  2.2205E-01   9.7975E+00  0.000E+00  0.000E+00  0.000E+00  1.03434E+03  7.008E-01  1.200E+01  6.000E-02  1.234E+00
   1   12    7     6     4    9.7975E+00  2.2148E-01   9.5760E+00  0.000E+00  0.000E+00  0.000E+00  1.02978E+03  6.913E-01  1.200E+01  6.000E-02  1.230E+00
   1   13    7     6     5    9.5760E+00 -1.7169E-01   9.7477E+00  0.000E+00  0.000E+00  0.000E+00  1.02660E+03  6.903E-01  1.200E+01  2.400E-01 -2.385E-01
   1   14    9     7     1    1.5000E+02  1.1451E+00   1.4885E+02  0.000E+00  0.000E+00  0.000E+00  1.03987E+03  2.288E+00  5.530E+01  5.593E-01  6.824E-01
   1   13    8     7     2    1.4885E+02  1.6336E+00   1.4722E+02  0.000E+00  0.000E+00  0.000E+00  1.03478E+03  2.281E+00  5.526E+01  6.149E-01  8.856E-01
   1   13    7     7     3    1.4722E+02  1.3280E+00   1.4589E+02  0.000E+00  0.000E+00  0.000E+00  1.02969E+03  2.273E+00  5.523E+01  5.586E-01  7.925E-01
   1   13    6     8     1    1.5564E+02  7.2137E-01   1.5492E+02  0.000E+00  0.000E+00  0.000E+00  1.02473E+03  2.854E+00  4.138E+01  4.217E-01  5.703E-01
   1   13    5     8     2    1.5492E+02 -1.1586E-01   1.5504E+02  0.000E+00  0.000E+00  0.000E+00  1.01848E+03  2.852E+00  4.135E+01  4.213E+00 -9.166E-03
   1   13    4     8     3    1.5504E+02 -3.3108E+00   1.5835E+02  0.000E+00  0.000E+00  0.000E+00  1.01224E+03  2.863E+00  4.152E+01  4.231E+00 -2.608E-01
   1   13    3     8     4    1.5835E+02 -4.2476E+00   1.6259E+02  0.000E+00  0.000E+00  0.000E+00  1.00601E+03  2.889E+00  4.189E+01  4.269E+00 -3.317E-01
   1   13    2     8     5    1.6259E+02 -2.8122E+00   1.6541E+02  0.000E+00  0.000E+00  0.000E+00  9.99788E+02  2.913E+00  4.223E+01  4.304E+00 -2.178E-01
   1   13    1     8     6    1.6541E+02 -1.9951E+00   1.6740E+02  0.000E+00  0.000E+00  0.000E+00  9.94804E+02  2.929E+00  4.247E+01  2.596E+00 -2.561E-01
   1    6    8     9     1    0.0000E+00  0.0000E+00   0.0000E+00  0.000E+00  0.000E+00  0.000E+00  1.07850E+03  0.000E+00  4.000E+00  0.000E+00  1.000E+00





UNSATURATED ZONE PACKAGE VOLUMETRIC BUDGET FOR  TIME STEP    30 STRESS PERIOD   11
  ------------------------------------------------------------------------------



     CUMULATIVE VOLUMES      L**3       RATES FOR THIS TIME STEP      L**3/T
     ------------------                 ------------------------

           IN:                                      IN:
           ---                                      ---
        INFILTRATION =    17787597.4070          INFILTRATION =       0.0000E+00

          OUT:                                     OUT:
          ----                                     ----
              UZF ET =   544908199.8558                UZF ET =       0.0000E+00
        UZF RECHARGE =   651473566.7852          UZF RECHARGE =          21.9423

            IN - OUT = -1178594169.2340              IN - OUT =         -21.9423

          STORAGE:                                 STORAGE:
          --------                                 --------
      STORAGE CHANGE = -1178568315.4556        STORAGE CHANGE =         -21.9423

 PERCENT DISCREPANCY IS DIFFERENCE BETWEEN IN-OUT MINUS CHANGE IN STORAGE
 DIVIDED BY THE AVERAGE OF IN AND OUT TIMES 100

 PERCENT DISCREPANCY =          -0.00     PERCENT DISCREPANCY =           0.00






1
  VOLUMETRIC BUDGET FOR ENTIRE MODEL AT END OF TIME STEP   30, STRESS PERIOD  11
  ------------------------------------------------------------------------------

     CUMULATIVE VOLUMES      L**3       RATES FOR THIS TIME STEP      L**3/T
     ------------------                 ------------------------

           IN:                                      IN:
           ---                                      ---
             STORAGE     =    32648584.0000               STORAGE     =       2.5278E-02
       CONSTANT HEAD     =           0.0000         CONSTANT HEAD     =           0.0000
               WELLS     =           0.0000                 WELLS     =           0.0000
     HEAD DEP BOUNDS     =     7270739.0000       HEAD DEP BOUNDS     =           0.2728
      STREAM LEAKAGE     =   303864640.0000        STREAM LEAKAGE     =           9.5991
        UZF RECHARGE     =   651473536.0000          UZF RECHARGE     =          21.9423
               GW ET     =           0.0000                 GW ET     =           0.0000
     SURFACE LEAKAGE     =           0.0000       SURFACE LEAKAGE     =           0.0000
    SUPPLEMENTARY WELLS  =           0.0000      SUPPLEMENTARY WELLS  =           0.0000

                TOTAL IN =   995257472.0000                  TOTAL IN =          31.8394

          OUT:                                     OUT:
          ----                                     ----
             STORAGE     =   634850496.0000               STORAGE     =          18.7203
       CONSTANT HEAD     =           0.0000         CONSTANT HEAD     =           0.0000
               WELLS     =           0.0000                 WELLS     =           0.0000
     HEAD DEP BOUNDS     =     7586196.0000       HEAD DEP BOUNDS     =           0.2877
      STREAM LEAKAGE     =   268315440.0000        STREAM LEAKAGE     =          12.6532
        UZF RECHARGE     =           0.0000          UZF RECHARGE     =           0.0000
               GW ET     =    84365328.0000                 GW ET     =           0.1750
     SURFACE LEAKAGE     =           0.0000       SURFACE LEAKAGE     =           0.0000
    SUPPLEMENTARY WELLS  =       36673.0352      SUPPLEMENTARY WELLS  =           0.0000

               TOTAL OUT =   995154112.0000                 TOTAL OUT =          31.8363

                IN - OUT =      103360.0000                  IN - OUT =       3.1700E-03

     PERCENT DISCREPANCY =           0.01         PERCENT DISCREPANCY =           0.01






         TIME SUMMARY AT END OF TIME STEP   30 IN STRESS PERIOD   11
                    SECONDS     MINUTES      HOURS       DAYS        YEARS
                    -----------------------------------------------------------
   TIME STEP LENGTH  87600.      1460.0      24.333      1.0139     2.77588E-03
 STRESS PERIOD TIME 2.62800E+06  43800.      730.00      30.417     8.32763E-02
         TOTAL TIME 2.63664E+07 4.39440E+05  7324.0      305.17     0.83550    
1
1
                            STRESS PERIOD NO.   12, LENGTH =   2628000.    
                            -----------------------------------------------

                              NUMBER OF TIME STEPS =    30

                               MULTIPLIER FOR DELT =     1.000

                            INITIAL TIME STEP SIZE =   87600.00    

 WELL NO.  LAYER   ROW   COL   STRESS RATE         
 --------------------------------------------------
      1      1      6      4       0.000    
      2      1      6      7       0.000    
      3      1      7      4       0.000    
      4      1      7      5       0.000    
      5      1      8      4       0.000    
      6      1      8      5       0.000    
      7      1      9      4       0.000    
      8      1      9      5       0.000    
      9      1     10      4       0.000    
     10      1     10      5       0.000    

     10 WELLS

 REUSING NON-PARAMETER GHB CELLS FROM LAST STRESS PERIOD

      2 GHB CELLS

 REUSING STREAM SEGMENT DATA FROM LAST STRESS PERIOD



            AREAL INFILTRATION RATE
 READING ON UNIT   19 WITH FORMAT: (10F4.0)            

            1           2           3           4           5           6           7           8           9          10
 ........................................................................................................................
   1    0.000       0.000       0.000       0.000       0.000       0.000       0.000       0.000       0.000       0.000    
   2    0.000       0.000       0.000       0.000       0.000       0.000       0.000       0.000       0.000       0.000    
   3    0.000       0.000       0.000       0.000       0.000       0.000       0.000       0.000       0.000       0.000    
   4    0.000       0.000       0.000       0.000       0.000       0.000       0.000       0.000       0.000       0.000    
   5    0.000       0.000       0.000       0.000       0.000       0.000       0.000       0.000       0.000       0.000    
   6    0.000       0.000       0.000       0.000       0.000       0.000       0.000       0.000       0.000       0.000    
   7    0.000       0.000       0.000       0.000       0.000       0.000       0.000       0.000       0.000       0.000    
   8    0.000       0.000       0.000       0.000       0.000       0.000       0.000       0.000       0.000       0.000    
   9    0.000       0.000       0.000       0.000       0.000       0.000       0.000       0.000       0.000       0.000    
  10    0.000       0.000       0.000       0.000       0.000       0.000       0.000       0.000       0.000       0.000    
  11    0.000       0.000       0.000       0.000       0.000       0.000       0.000       0.000       0.000       0.000    
  12    0.000       0.000       0.000       0.000       0.000       0.000       0.000       0.000       0.000       0.000    
  13    0.000       0.000       0.000       0.000       0.000       0.000       0.000       0.000       0.000       0.000    
  14    0.000       0.000       0.000       0.000       0.000       0.000       0.000       0.000       0.000       0.000    
  15    0.000       0.000       0.000       0.000       0.000       0.000       0.000       0.000       0.000       0.000    

                  ET RATE =  1.000000E-10

 USING ET EXTINCTION DEPTH FROM PREVIOUS STRESS PERIOD. CURRENT PERIOD IS:      12

 USING EXTINCTION WATER CONTENT FROM PREVIOUS STRESS PERIOD. CURRENT PERIOD IS:      12

 PROCESSING AGO STRESS PERIOD DATA

 READING AGO STRESS PERIOD DATA

 READING IRRIGATION STREAM

 READING IRRIGATION WELL

 READING SUPPLEMENTAL WEL

 END PROCESSING AGO STRESS PERIOD DATA OPTIONS
 
 SOLVING FOR HEAD 
                                                   Max.-Head-Change                         Max.-Flux-Residual
  Residual-Control   Outer-Iter.   Inner-Iter.     Column Row Layer    Maximum-Head-Change  Column Row Layer    Maximum-Flux-Residual          L2-NORM 
          0                 1           2             6   13     1       0.7380163224E-02       6   13    1         0.3932013187E+00      0.1314646765E+01
          0                 2           2            10   10     1       0.2141619933E-02      10   10    1         0.5562165508E-01      0.3324333243E+00
          0                 3           2            10   10     1       0.9624852870E-03      10   10    1         0.2499747835E-01      0.1276945609E+00
          0                 4           2            10   10     1       0.4325587495E-03      10   10    1         0.1123434570E-01      0.5576412518E-01
          0                 5           2            10   10     1       0.1943996173E-03      10   10    1         0.5048922025E-02      0.2488495718E-01
          0                 6           1            10   10     1       0.8736651489E-04      10   10    1         0.2269074956E-02      0.1114175699E-01
          0                 7           1            10   10     1       0.3926394400E-04      10   10    1         0.1019760821E-02      0.4991161851E-02
          0                 8           1            10   10     1       0.1764583133E-04      10   10    1         0.4582970926E-03      0.2236148664E-02
          0                 9           1            10   10     1       0.7930300614E-05      10   10    1         0.2059658366E-03      0.1001899310E-02

    ------------------------------------------------
       NWT REQUIRED            9 OUTER ITERATIONS 
       AND A TOTAL OF         14 INNER ITERATIONS.
    ------------------------------------------------

 NO OUTPUT CONTROL FOR STRESS PERIOD   12   TIME STEP    1
 
 SOLVING FOR HEAD 
                                                   Max.-Head-Change                         Max.-Flux-Residual
  Residual-Control   Outer-Iter.   Inner-Iter.     Column Row Layer    Maximum-Head-Change  Column Row Layer    Maximum-Flux-Residual          L2-NORM 
          0                 1           2             6   13     1       0.7212048518E-02       6   13    1         0.3842910683E+00      0.1307376769E+01
          0                 2           2            10   10     1       0.2140621166E-02      10   10    1         0.5559579223E-01      0.3318316145E+00
          0                 3           2            10   10     1       0.9620347975E-03      10   10    1         0.2498581284E-01      0.1275249983E+00
          0                 4           2            10   10     1       0.4323555615E-03      10   10    1         0.1122908403E-01      0.5568960470E-01
          0                 5           2            10   10     1       0.1943079736E-03      10   10    1         0.5046548824E-02      0.2485167159E-01
          0                 6           1            10   10     1       0.8732518204E-04      10   10    1         0.2268004581E-02      0.1112689376E-01
          0                 7           1            10   10     1       0.3924530223E-04      10   10    1         0.1019278061E-02      0.4984528146E-02
          0                 8           1            10   10     1       0.1763742384E-04      10   10    1         0.4580793627E-03      0.2233187990E-02
          0                 9           1            10   10     1       0.7926508931E-05      10   10    1         0.2058676422E-03      0.1000575665E-02

    ------------------------------------------------
       NWT REQUIRED            9 OUTER ITERATIONS 
       AND A TOTAL OF         14 INNER ITERATIONS.
    ------------------------------------------------

 NO OUTPUT CONTROL FOR STRESS PERIOD   12   TIME STEP    2
 
 SOLVING FOR HEAD 
                                                   Max.-Head-Change                         Max.-Flux-Residual
  Residual-Control   Outer-Iter.   Inner-Iter.     Column Row Layer    Maximum-Head-Change  Column Row Layer    Maximum-Flux-Residual          L2-NORM 
          0                 1           2             6   13     1       0.7047377667E-02       6   13    1         0.3755525562E+00      0.1300687743E+01
          0                 2           2            10   10     1       0.2139618971E-02      10   10    1         0.5556983997E-01      0.3312494643E+00
          0                 3           2            10   10     1       0.9615827748E-03      10   10    1         0.2497410733E-01      0.1273570638E+00
          0                 4           2            10   10     1       0.4321516890E-03      10   10    1         0.1122380449E-01      0.5561579057E-01
          0                 5           2            10   10     1       0.1942160235E-03      10   10    1         0.5044167626E-02      0.2481864200E-01
          0                 6           1            10   10     1       0.8728371188E-04      10   10    1         0.2266930627E-02      0.1111213465E-01
          0                 7           1            10   10     1       0.3922659917E-04      10   10    1         0.1018793700E-02      0.4977932781E-02
          0                 8           1            10   10     1       0.1762898910E-04      10   10    1         0.4578609182E-03      0.2230239962E-02
          0                 9           1            10   10     1       0.7922704992E-05      10   10    1         0.2057691240E-03      0.9992584981E-03

    ------------------------------------------------
       NWT REQUIRED            9 OUTER ITERATIONS 
       AND A TOTAL OF         14 INNER ITERATIONS.
    ------------------------------------------------

 NO OUTPUT CONTROL FOR STRESS PERIOD   12   TIME STEP    3
 
 SOLVING FOR HEAD 
                                                   Max.-Head-Change                         Max.-Flux-Residual
  Residual-Control   Outer-Iter.   Inner-Iter.     Column Row Layer    Maximum-Head-Change  Column Row Layer    Maximum-Flux-Residual          L2-NORM 
          0                 1           2             6   13     1       0.6885978363E-02       6   13    1         0.3670036969E+00      0.1293998992E+01
          0                 2           2            10   10     1       0.2138613384E-02      10   10    1         0.5554379922E-01      0.3306526941E+00
          0                 3           2            10   10     1       0.9611292359E-03      10   10    1         0.2496236227E-01      0.1271930432E+00
          0                 4           2            10   10     1       0.4319471377E-03      10   10    1         0.1121850726E-01      0.5554439409E-01
          0                 5           2            10   10     1       0.1941237711E-03      10   10    1         0.5041778535E-02      0.2478667600E-01
          0                 6           1            10   10     1       0.8724210641E-04      10   10    1         0.2265853147E-02      0.1109781723E-01
          0                 7           1            10   10     1       0.3920783609E-04      10   10    1         0.1018307771E-02      0.4971629877E-02
          0                 8           1            10   10     1       0.1762052759E-04      10   10    1         0.4576417727E-03      0.2227660314E-02
          0                 9           1            10   10     1       0.7918888797E-05      10   10    1         0.2056702919E-03      0.9979751367E-03

    ------------------------------------------------
       NWT REQUIRED            9 OUTER ITERATIONS 
       AND A TOTAL OF         14 INNER ITERATIONS.
    ------------------------------------------------

 NO OUTPUT CONTROL FOR STRESS PERIOD   12   TIME STEP    4
 
 SOLVING FOR HEAD 
                                                   Max.-Head-Change                         Max.-Flux-Residual
  Residual-Control   Outer-Iter.   Inner-Iter.     Column Row Layer    Maximum-Head-Change  Column Row Layer    Maximum-Flux-Residual          L2-NORM 
          0                 1           2             6   13     1       0.6727885368E-02       6   13    1         0.3585965644E+00      0.1287968653E+01
          0                 2           2            10   10     1       0.2137555597E-02      10   10    1         0.5551640129E-01      0.3300881647E+00
          0                 3           2            10   10     1       0.9606522682E-03      10   10    1         0.2495000808E-01      0.1270259685E+00
          0                 4           2            10   10     1       0.4317320720E-03      10   10    1         0.1121293664E-01      0.5547097620E-01
          0                 5           2            10   10     1       0.1940267988E-03      10   10    1         0.5039266730E-02      0.2475387276E-01
          0                 6           1            10   10     1       0.8719838275E-04      10   10    1         0.2264720589E-02      0.1108316796E-01
          0                 7           1            10   10     1       0.3918812184E-04      10   10    1         0.1017797118E-02      0.4964980510E-02
          0                 8           1            10   10     1       0.1761163915E-04      10   10    1         0.4574115320E-03      0.2224448979E-02
          0                 9           1            10   10     1       0.7914881268E-05      10   10    1         0.2055664836E-03      0.9966688213E-03

    ------------------------------------------------
       NWT REQUIRED            9 OUTER ITERATIONS 
       AND A TOTAL OF         14 INNER ITERATIONS.
    ------------------------------------------------

 OUTPUT CONTROL FOR STRESS PERIOD   12   TIME STEP    5
    PRINT BUDGET
    SAVE BUDGET
 UBUDSV SAVING "         STORAGE" ON UNIT102 AT TIME STEP     5, STRESS PERIOD   12
 UBUDSV SAVING "   CONSTANT HEAD" ON UNIT102 AT TIME STEP     5, STRESS PERIOD   12
 UBUDSV SAVING "FLOW RIGHT FACE " ON UNIT102 AT TIME STEP     5, STRESS PERIOD   12
 UBUDSV SAVING "FLOW FRONT FACE " ON UNIT102 AT TIME STEP     5, STRESS PERIOD   12

  HEAD DEP BOUNDS   PERIOD   12   STEP     5
 BOUNDARY      1   LAYER   1   ROW    13   COL     1   RATE   -0.288017    
 BOUNDARY      2   LAYER   1   ROW    14   COL     9   RATE    0.272778    



 STREAM LISTING     PERIOD     12   STEP        5

 LAYER ROW COL. STREAM  RCH.  FLOW INTO     FLOW TO   FLOW OUT OF   OVRLND.     DIRECT     STREAM       STREAM     STREAM     STREAM   STREAMBED  STREAMBED
                SEG.NO.  NO.  STRM. RCH.    AQUIFER    STRM. RCH.    RUNOFF     PRECIP       ET          HEAD       DEPTH      WIDTH   CONDCTNC.   GRADIENT

   1    1    1     1     1    3.5000E+00  8.3255E-02   3.4167E+00  0.000E+00  0.000E+00  0.000E+00  1.09371E+03  6.654E-01  5.047E+00  2.271E-02  1.222E+00
   1    2    2     1     2    3.4167E+00  1.2792E-01   3.2888E+00  0.000E+00  0.000E+00  0.000E+00  1.08872E+03  6.583E-01  4.995E+00  3.497E-02  1.219E+00
   1    3    3     1     3    3.2888E+00  1.0809E-01   3.1807E+00  0.000E+00  0.000E+00  0.000E+00  1.08307E+03  6.502E-01  4.935E+00  2.961E-02  1.217E+00
   1    3    4     1     4    3.1807E+00  9.8702E-02   3.0820E+00  0.000E+00  0.000E+00  0.000E+00  1.07805E+03  6.428E-01  4.882E+00  2.709E-02  1.214E+00
   1    4    5     2     1    1.0820E+00  2.4731E-01   8.3473E-01  0.000E+00  0.000E+00  0.000E+00  1.07210E+03  1.706E-01  1.200E+01  7.800E-02  1.057E+00
   1    5    6     2     2    8.3473E-01  1.8877E-01   6.4596E-01  0.000E+00  0.000E+00  0.000E+00  1.06666E+03  1.462E-01  1.200E+01  6.000E-02  1.049E+00
   1    6    6     2     3    6.4596E-01  1.8736E-01   4.5860E-01  0.000E+00  0.000E+00  0.000E+00  1.06192E+03  1.226E-01  1.200E+01  6.000E-02  1.041E+00
   1    7    6     2     4    4.5860E-01  1.8574E-01   2.7286E-01  0.000E+00  0.000E+00  0.000E+00  1.05717E+03  9.573E-02  1.200E+01  6.000E-02  1.032E+00
   1    8    6     2     5    2.7286E-01  1.8377E-01   8.9092E-02  0.000E+00  0.000E+00  0.000E+00  1.05242E+03  6.276E-02  1.200E+01  6.000E-02  1.021E+00
   1    3    5     3     1    2.0000E+00  2.8252E-01   1.7175E+00  0.000E+00  0.000E+00  0.000E+00  1.07555E+03  1.909E+00  9.636E+00  7.227E-02  1.955E+00
   1    3    6     3     2    1.7175E+00  2.4905E-01   1.4684E+00  0.000E+00  0.000E+00  0.000E+00  1.07264E+03  1.727E+00  8.909E+00  6.682E-02  1.864E+00
   1    3    7     3     3    1.4684E+00  1.9718E-01   1.2712E+00  0.000E+00  0.000E+00  0.000E+00  1.06987E+03  1.555E+00  8.218E+00  5.547E-02  1.777E+00
   1    4    8     3     4    1.2712E+00  2.2567E-01   1.0456E+00  0.000E+00  0.000E+00  0.000E+00  1.06682E+03  1.364E+00  7.455E+00  6.709E-02  1.682E+00
   1    5    8     3     5    1.0456E+00  1.5790E-01   8.8768E-01  0.000E+00  0.000E+00  0.000E+00  1.06362E+03  1.164E+00  6.655E+00  4.991E-02  1.582E+00
   1    6    8     3     6    8.8768E-01  5.5980E-02   8.3170E-01  0.000E+00  0.000E+00  0.000E+00  1.06158E+03  1.036E+00  6.145E+00  1.844E-02  1.518E+00
   1    5   10     4     1    1.0000E+01  9.0919E-02   9.9091E+00  0.000E+00  0.000E+00  0.000E+00  1.07836E+03  6.368E-01  1.000E+01  2.500E-02  1.212E+00
   1    5    9     4     2    9.9091E+00  1.8158E-01   9.7275E+00  0.000E+00  0.000E+00  0.000E+00  1.07154E+03  6.315E-01  1.000E+01  5.000E-02  1.211E+00
   1    6    8     4     3    9.7275E+00  1.2689E-01   9.6006E+00  0.000E+00  0.000E+00  0.000E+00  1.06381E+03  6.256E-01  1.000E+01  3.500E-02  1.209E+00
   1    6    8     5     1    1.0432E+01  2.2686E-01   1.0205E+01  0.000E+00  0.000E+00  0.000E+00  1.05868E+03  6.790E-01  1.542E+01  6.166E-02  1.226E+00
   1    7    7     5     2    1.0205E+01  2.7894E-01   9.9265E+00  0.000E+00  0.000E+00  0.000E+00  1.05417E+03  6.732E-01  1.519E+01  7.594E-02  1.224E+00
   1    8    7     5     3    9.9265E+00  1.9221E-01   9.7343E+00  0.000E+00  0.000E+00  0.000E+00  1.04992E+03  6.676E-01  1.497E+01  5.241E-02  1.223E+00
   1    8    6     5     4    9.7343E+00  1.3577E-01   9.5985E+00  0.000E+00  0.000E+00  0.000E+00  1.04691E+03  6.637E-01  1.482E+01  3.706E-02  1.221E+00
   1    9    6     6     1    9.6876E+00  2.2120E-01   9.4664E+00  0.000E+00  0.000E+00  0.000E+00  1.04341E+03  6.866E-01  1.200E+01  6.000E-02  1.229E+00
   1   10    7     6     2    9.4664E+00  2.2062E-01   9.2458E+00  0.000E+00  0.000E+00  0.000E+00  1.03886E+03  6.771E-01  1.200E+01  6.000E-02  1.226E+00
   1   11    7     6     3    9.2458E+00  2.2005E-01   9.0258E+00  0.000E+00  0.000E+00  0.000E+00  1.03430E+03  6.674E-01  1.200E+01  6.000E-02  1.222E+00
   1   12    7     6     4    9.0258E+00  2.1947E-01   8.8063E+00  0.000E+00  0.000E+00  0.000E+00  1.02975E+03  6.578E-01  1.200E+01  6.000E-02  1.219E+00
   1   13    7     6     5    8.8063E+00 -1.8473E-01   8.9910E+00  0.000E+00  0.000E+00  0.000E+00  1.02657E+03  6.570E-01  1.200E+01  2.400E-01 -2.566E-01
   1   14    9     7     1    1.5000E+02  1.1451E+00   1.4885E+02  0.000E+00  0.000E+00  0.000E+00  1.03987E+03  2.288E+00  5.530E+01  5.593E-01  6.824E-01
   1   13    8     7     2    1.4885E+02  1.6299E+00   1.4723E+02  0.000E+00  0.000E+00  0.000E+00  1.03478E+03  2.281E+00  5.526E+01  6.149E-01  8.836E-01
   1   13    7     7     3    1.4723E+02  1.3163E+00   1.4591E+02  0.000E+00  0.000E+00  0.000E+00  1.02969E+03  2.273E+00  5.523E+01  5.586E-01  7.855E-01
   1   13    6     8     1    1.5490E+02  7.0445E-01   1.5420E+02  0.000E+00  0.000E+00  0.000E+00  1.02472E+03  2.849E+00  4.130E+01  4.209E-01  5.579E-01
   1   13    5     8     2    1.5420E+02 -2.0462E-01   1.5440E+02  0.000E+00  0.000E+00  0.000E+00  1.01847E+03  2.847E+00  4.128E+01  4.206E+00 -1.621E-02
   1   13    4     8     3    1.5440E+02 -3.3385E+00   1.5774E+02  0.000E+00  0.000E+00  0.000E+00  1.01223E+03  2.859E+00  4.146E+01  4.225E+00 -2.634E-01
   1   13    3     8     4    1.5774E+02 -4.2631E+00   1.6200E+02  0.000E+00  0.000E+00  0.000E+00  1.00601E+03  2.885E+00  4.183E+01  4.263E+00 -3.334E-01
   1   13    2     8     5    1.6200E+02 -2.8274E+00   1.6483E+02  0.000E+00  0.000E+00  0.000E+00  9.99784E+02  2.909E+00  4.218E+01  4.298E+00 -2.193E-01
   1   13    1     8     6    1.6483E+02 -2.0213E+00   1.6685E+02  0.000E+00  0.000E+00  0.000E+00  9.94800E+02  2.925E+00  4.241E+01  2.593E+00 -2.598E-01
   1    6    8     9     1    0.0000E+00  0.0000E+00   0.0000E+00  0.000E+00  0.000E+00  0.000E+00  1.07850E+03  0.000E+00  4.000E+00  0.000E+00  1.000E+00



 UBDSV3 SAVING "     NETRECHARGE" ON UNIT 100 AT TIME STEP     5, STRESS PERIOD  12
 UBDSV3 SAVING "    NETDISCHARGE" ON UNIT 101 AT TIME STEP     5, STRESS PERIOD  12
 UBDSV3 SAVING "           GW ET" ON UNIT  61 AT TIME STEP     5, STRESS PERIOD  12
 UBDSV3 SAVING "    UZF RECHARGE" ON UNIT  61 AT TIME STEP     5, STRESS PERIOD  12
 UBDSV3 SAVING " SURFACE LEAKAGE" ON UNIT  61 AT TIME STEP     5, STRESS PERIOD  12
 UBDSV3 SAVING "       HORT+DUNN" ON UNIT  61 AT TIME STEP     5, STRESS PERIOD  12
 UBDSV3 SAVING "  STORAGE CHANGE" ON UNIT  61 AT TIME STEP     5, STRESS PERIOD  12


UNSATURATED ZONE PACKAGE VOLUMETRIC BUDGET FOR  TIME STEP     5 STRESS PERIOD   12
  ------------------------------------------------------------------------------



     CUMULATIVE VOLUMES      L**3       RATES FOR THIS TIME STEP      L**3/T
     ------------------                 ------------------------

           IN:                                      IN:
           ---                                      ---
        INFILTRATION =    17787597.4070          INFILTRATION =       0.0000E+00

          OUT:                                     OUT:
          ----                                     ----
              UZF ET =   544908199.8558                UZF ET =       0.0000E+00
        UZF RECHARGE =   661063019.6425          UZF RECHARGE =          21.8699

            IN - OUT = -1188183622.0912              IN - OUT =         -21.8699

          STORAGE:                                 STORAGE:
          --------                                 --------
      STORAGE CHANGE = -1188157768.3299        STORAGE CHANGE =         -21.8699

 PERCENT DISCREPANCY IS DIFFERENCE BETWEEN IN-OUT MINUS CHANGE IN STORAGE
 DIVIDED BY THE AVERAGE OF IN AND OUT TIMES 100

 PERCENT DISCREPANCY =          -0.00     PERCENT DISCREPANCY =           0.00






1
  VOLUMETRIC BUDGET FOR ENTIRE MODEL AT END OF TIME STEP    5, STRESS PERIOD  12
  ------------------------------------------------------------------------------

     CUMULATIVE VOLUMES      L**3       RATES FOR THIS TIME STEP      L**3/T
     ------------------                 ------------------------

           IN:                                      IN:
           ---                                      ---
             STORAGE     =    32657414.0000               STORAGE     =       2.1075E-02
       CONSTANT HEAD     =           0.0000         CONSTANT HEAD     =           0.0000
               WELLS     =           0.0000                 WELLS     =           0.0000
     HEAD DEP BOUNDS     =     7390216.5000       HEAD DEP BOUNDS     =           0.2728
      STREAM LEAKAGE     =   308025984.0000        STREAM LEAKAGE     =           9.4895
        UZF RECHARGE     =   661062912.0000          UZF RECHARGE     =          21.8699
               GW ET     =           0.0000                 GW ET     =           0.0000
     SURFACE LEAKAGE     =           0.0000       SURFACE LEAKAGE     =           0.0000
    SUPPLEMENTARY WELLS  =           0.0000      SUPPLEMENTARY WELLS  =           0.0000

                TOTAL IN =  1009136512.0000                  TOTAL IN =          31.6532

          OUT:                                     OUT:
          ----                                     ----
             STORAGE     =   642988096.0000               STORAGE     =          18.5050
       CONSTANT HEAD     =           0.0000         CONSTANT HEAD     =           0.0000
               WELLS     =           0.0000                 WELLS     =           0.0000
     HEAD DEP BOUNDS     =     7712301.0000       HEAD DEP BOUNDS     =           0.2880
      STREAM LEAKAGE     =   273921760.0000        STREAM LEAKAGE     =          12.8395
        UZF RECHARGE     =           0.0000          UZF RECHARGE     =           0.0000
               GW ET     =    84373008.0000                 GW ET     =       1.7500E-02
     SURFACE LEAKAGE     =           0.0000       SURFACE LEAKAGE     =           0.0000
    SUPPLEMENTARY WELLS  =       36673.0352      SUPPLEMENTARY WELLS  =           0.0000

               TOTAL OUT =  1009031872.0000                 TOTAL OUT =          31.6500

                IN - OUT =      104640.0000                  IN - OUT =       3.1548E-03

     PERCENT DISCREPANCY =           0.01         PERCENT DISCREPANCY =           0.01






         TIME SUMMARY AT END OF TIME STEP    5 IN STRESS PERIOD   12
                    SECONDS     MINUTES      HOURS       DAYS        YEARS
                    -----------------------------------------------------------
   TIME STEP LENGTH  87600.      1460.0      24.333      1.0139     2.77588E-03
 STRESS PERIOD TIME 4.38000E+05  7300.0      121.67      5.0694     1.38794E-02
         TOTAL TIME 2.68044E+07 4.46740E+05  7445.7      310.24     0.84938    
1
 
 SOLVING FOR HEAD 
                                                   Max.-Head-Change                         Max.-Flux-Residual
  Residual-Control   Outer-Iter.   Inner-Iter.     Column Row Layer    Maximum-Head-Change  Column Row Layer    Maximum-Flux-Residual          L2-NORM 
          0                 1           2             6   13     1       0.6573677605E-02       6   13    1         0.3503880486E+00      0.1282593296E+01
          0                 2           2            10   10     1       0.2136543321E-02      10   10    1         0.5549018837E-01      0.3295757978E+00
          0                 3           2            10   10     1       0.9601956909E-03      10   10    1         0.2493818479E-01      0.1268620410E+00
          0                 4           2            10   10     1       0.4315261413E-03      10   10    1         0.1120760388E-01      0.5539802372E-01
          0                 5           2            10   10     1       0.1939339195E-03      10   10    1         0.5036861498E-02      0.2472121625E-01
          0                 6           1            10   10     1       0.8715649315E-04      10   10    1         0.2263635781E-02      0.1106857640E-01
          0                 7           1            10   10     1       0.3916922945E-04      10   10    1         0.1017307854E-02      0.4958462964E-02
          0                 8           1            10   10     1       0.1760311861E-04      10   10    1         0.4571908729E-03      0.2221537994E-02
          0                 9           1            10   10     1       0.7911038812E-05      10   10    1         0.2054669703E-03      0.9953686404E-03

    ------------------------------------------------
       NWT REQUIRED            9 OUTER ITERATIONS 
       AND A TOTAL OF         14 INNER ITERATIONS.
    ------------------------------------------------

 NO OUTPUT CONTROL FOR STRESS PERIOD   12   TIME STEP    6
 
 SOLVING FOR HEAD 
                                                   Max.-Head-Change                         Max.-Flux-Residual
  Residual-Control   Outer-Iter.   Inner-Iter.     Column Row Layer    Maximum-Head-Change  Column Row Layer    Maximum-Flux-Residual          L2-NORM 
          0                 1           2             6   13     1       0.6423155149E-02       6   13    1         0.3423696001E+00      0.1277620001E+01
          0                 2           2            10   10     1       0.2135527785E-02      10   10    1         0.5546388805E-01      0.3290839974E+00
          0                 3           2            10   10     1       0.9597377054E-03      10   10    1         0.2492632372E-01      0.1267005004E+00
          0                 4           2            10   10     1       0.4313196038E-03      10   10    1         0.1120225481E-01      0.5532600664E-01
          0                 5           2            10   10     1       0.1938407792E-03      10   10    1         0.5034449232E-02      0.2468907076E-01
          0                 6           1            10   10     1       0.8711449100E-04      10   10    1         0.2262547940E-02      0.1105435220E-01
          0                 7           1            10   10     1       0.3915028879E-04      10   10    1         0.1016817292E-02      0.4952171440E-02
          0                 8           1            10   10     1       0.1759457757E-04      10   10    1         0.4569696578E-03      0.2218754017E-02
          0                 9           1            10   10     1       0.7907187352E-05      10   10    1         0.2053672149E-03      0.9941368888E-03

    ------------------------------------------------
       NWT REQUIRED            9 OUTER ITERATIONS 
       AND A TOTAL OF         14 INNER ITERATIONS.
    ------------------------------------------------

 NO OUTPUT CONTROL FOR STRESS PERIOD   12   TIME STEP    7
 
 SOLVING FOR HEAD 
                                                   Max.-Head-Change                         Max.-Flux-Residual
  Residual-Control   Outer-Iter.   Inner-Iter.     Column Row Layer    Maximum-Head-Change  Column Row Layer    Maximum-Flux-Residual          L2-NORM 
          0                 1           2             6   13     1       0.6276416443E-02       6   13    1         0.3345478548E+00      0.1272805784E+01
          0                 2           2            10   10     1       0.2134459947E-02      10   10    1         0.5543623020E-01      0.3285919505E+00
          0                 3           2            10   10     1       0.9592561981E-03      10   10    1         0.2491385210E-01      0.1265417523E+00
          0                 4           2            10   10     1       0.4311024870E-03      10   10    1         0.1119663114E-01      0.5525605123E-01
          0                 5           2            10   10     1       0.1937428807E-03      10   10    1         0.5031913474E-02      0.2465791842E-01
          0                 6           1            10   10     1       0.8707034940E-04      10   10    1         0.2261404569E-02      0.1104040099E-01
          0                 7           1            10   10     1       0.3913038621E-04      10   10    1         0.1016301755E-02      0.4945924609E-02
          0                 8           1            10   10     1       0.1758560384E-04      10   10    1         0.4567372063E-03      0.2215957755E-02
          0                 9           1            10   10     1       0.7903141306E-05      10   10    1         0.2052624063E-03      0.9928846063E-03

    ------------------------------------------------
       NWT REQUIRED            9 OUTER ITERATIONS 
       AND A TOTAL OF         14 INNER ITERATIONS.
    ------------------------------------------------

 NO OUTPUT CONTROL FOR STRESS PERIOD   12   TIME STEP    8
 
 SOLVING FOR HEAD 
                                                   Max.-Head-Change                         Max.-Flux-Residual
  Residual-Control   Outer-Iter.   Inner-Iter.     Column Row Layer    Maximum-Head-Change  Column Row Layer    Maximum-Flux-Residual          L2-NORM 
          0                 1           2             6   13     1       0.6133331220E-02       6   13    1         0.3269162705E+00      0.1268277437E+01
          0                 2           2            10   10     1       0.2133437773E-02      10   10    1         0.5540975896E-01      0.3281083197E+00
          0                 3           2            10   10     1       0.9587951989E-03      10   10    1         0.2490191340E-01      0.1263826775E+00
          0                 4           2            10   10     1       0.4308945811E-03      10   10    1         0.1119124683E-01      0.5518558496E-01
          0                 5           2            10   10     1       0.1936491196E-03      10   10    1         0.5029485221E-02      0.2462637286E-01
          0                 6           1            10   10     1       0.8702806588E-04      10   10    1         0.2260309481E-02      0.1102628354E-01
          0                 7           1            10   10     1       0.3911131774E-04      10   10    1         0.1015807902E-02      0.4939606899E-02
          0                 8           1            10   10     1       0.1757700477E-04      10   10    1         0.4565145006E-03      0.2213131764E-02
          0                 9           1            10   10     1       0.7899263834E-05      10   10    1         0.2051619810E-03      0.9916191641E-03

    ------------------------------------------------
       NWT REQUIRED            9 OUTER ITERATIONS 
       AND A TOTAL OF         14 INNER ITERATIONS.
    ------------------------------------------------

 NO OUTPUT CONTROL FOR STRESS PERIOD   12   TIME STEP    9
 
 SOLVING FOR HEAD 
                                                   Max.-Head-Change                         Max.-Flux-Residual
  Residual-Control   Outer-Iter.   Inner-Iter.     Column Row Layer    Maximum-Head-Change  Column Row Layer    Maximum-Flux-Residual          L2-NORM 
          0                 1           2             6   13     1       0.5993816381E-02       6   13    1         0.3194851176E+00      0.1263734057E+01
          0                 2           2            10   10     1       0.2132412258E-02      10   10    1         0.5538320050E-01      0.3276018607E+00
          0                 3           2            10   10     1       0.9583327066E-03      10   10    1         0.2488993574E-01      0.1262199357E+00
          0                 4           2            10   10     1       0.4306860083E-03      10   10    1         0.1118584510E-01      0.5511398081E-01
          0                 5           2            10   10     1       0.1935550601E-03      10   10    1         0.5027049182E-02      0.2459437331E-01
          0                 6           1            10   10     1       0.8698564905E-04      10   10    1         0.2259210912E-02      0.1101198390E-01
          0                 7           1            10   10     1       0.3909219000E-04      10   10    1         0.1015312498E-02      0.4933217652E-02
          0                 8           1            10   10     1       0.1756837969E-04      10   10    1         0.4562911009E-03      0.2210275196E-02
          0                 9           1            10   10     1       0.7895374107E-05      10   10    1         0.2050612375E-03      0.9903432017E-03

    ------------------------------------------------
       NWT REQUIRED            9 OUTER ITERATIONS 
       AND A TOTAL OF         14 INNER ITERATIONS.
    ------------------------------------------------

 OUTPUT CONTROL FOR STRESS PERIOD   12   TIME STEP   10
    PRINT BUDGET
    SAVE BUDGET
 UBUDSV SAVING "         STORAGE" ON UNIT102 AT TIME STEP    10, STRESS PERIOD   12
 UBUDSV SAVING "   CONSTANT HEAD" ON UNIT102 AT TIME STEP    10, STRESS PERIOD   12
 UBUDSV SAVING "FLOW RIGHT FACE " ON UNIT102 AT TIME STEP    10, STRESS PERIOD   12
 UBUDSV SAVING "FLOW FRONT FACE " ON UNIT102 AT TIME STEP    10, STRESS PERIOD   12

  HEAD DEP BOUNDS   PERIOD   12   STEP    10
 BOUNDARY      1   LAYER   1   ROW    13   COL     1   RATE   -0.288238    
 BOUNDARY      2   LAYER   1   ROW    14   COL     9   RATE    0.272780    



 STREAM LISTING     PERIOD     12   STEP       10

 LAYER ROW COL. STREAM  RCH.  FLOW INTO     FLOW TO   FLOW OUT OF   OVRLND.     DIRECT     STREAM       STREAM     STREAM     STREAM   STREAMBED  STREAMBED
                SEG.NO.  NO.  STRM. RCH.    AQUIFER    STRM. RCH.    RUNOFF     PRECIP       ET          HEAD       DEPTH      WIDTH   CONDCTNC.   GRADIENT

   1    1    1     1     1    3.5000E+00  8.3255E-02   3.4167E+00  0.000E+00  0.000E+00  0.000E+00  1.09371E+03  6.654E-01  5.047E+00  2.271E-02  1.222E+00
   1    2    2     1     2    3.4167E+00  1.2792E-01   3.2888E+00  0.000E+00  0.000E+00  0.000E+00  1.08872E+03  6.583E-01  4.995E+00  3.497E-02  1.219E+00
   1    3    3     1     3    3.2888E+00  1.0809E-01   3.1807E+00  0.000E+00  0.000E+00  0.000E+00  1.08307E+03  6.502E-01  4.935E+00  2.961E-02  1.217E+00
   1    3    4     1     4    3.1807E+00  9.8702E-02   3.0820E+00  0.000E+00  0.000E+00  0.000E+00  1.07805E+03  6.428E-01  4.882E+00  2.709E-02  1.214E+00
   1    4    5     2     1    1.0820E+00  2.4731E-01   8.3473E-01  0.000E+00  0.000E+00  0.000E+00  1.07210E+03  1.706E-01  1.200E+01  7.800E-02  1.057E+00
   1    5    6     2     2    8.3473E-01  1.8877E-01   6.4596E-01  0.000E+00  0.000E+00  0.000E+00  1.06666E+03  1.462E-01  1.200E+01  6.000E-02  1.049E+00
   1    6    6     2     3    6.4596E-01  1.8736E-01   4.5860E-01  0.000E+00  0.000E+00  0.000E+00  1.06192E+03  1.226E-01  1.200E+01  6.000E-02  1.041E+00
   1    7    6     2     4    4.5860E-01  1.8574E-01   2.7286E-01  0.000E+00  0.000E+00  0.000E+00  1.05717E+03  9.573E-02  1.200E+01  6.000E-02  1.032E+00
   1    8    6     2     5    2.7286E-01  1.8377E-01   8.9092E-02  0.000E+00  0.000E+00  0.000E+00  1.05242E+03  6.276E-02  1.200E+01  6.000E-02  1.021E+00
   1    3    5     3     1    2.0000E+00  2.8252E-01   1.7175E+00  0.000E+00  0.000E+00  0.000E+00  1.07555E+03  1.909E+00  9.636E+00  7.227E-02  1.955E+00
   1    3    6     3     2    1.7175E+00  2.4905E-01   1.4684E+00  0.000E+00  0.000E+00  0.000E+00  1.07264E+03  1.727E+00  8.909E+00  6.682E-02  1.864E+00
   1    3    7     3     3    1.4684E+00  1.9718E-01   1.2712E+00  0.000E+00  0.000E+00  0.000E+00  1.06987E+03  1.555E+00  8.218E+00  5.547E-02  1.777E+00
   1    4    8     3     4    1.2712E+00  2.2567E-01   1.0456E+00  0.000E+00  0.000E+00  0.000E+00  1.06682E+03  1.364E+00  7.455E+00  6.709E-02  1.682E+00
   1    5    8     3     5    1.0456E+00  1.5790E-01   8.8768E-01  0.000E+00  0.000E+00  0.000E+00  1.06362E+03  1.164E+00  6.655E+00  4.991E-02  1.582E+00
   1    6    8     3     6    8.8768E-01  5.5980E-02   8.3170E-01  0.000E+00  0.000E+00  0.000E+00  1.06158E+03  1.036E+00  6.145E+00  1.844E-02  1.518E+00
   1    5   10     4     1    1.0000E+01  9.0919E-02   9.9091E+00  0.000E+00  0.000E+00  0.000E+00  1.07836E+03  6.368E-01  1.000E+01  2.500E-02  1.212E+00
   1    5    9     4     2    9.9091E+00  1.8158E-01   9.7275E+00  0.000E+00  0.000E+00  0.000E+00  1.07154E+03  6.315E-01  1.000E+01  5.000E-02  1.211E+00
   1    6    8     4     3    9.7275E+00  1.2689E-01   9.6006E+00  0.000E+00  0.000E+00  0.000E+00  1.06381E+03  6.256E-01  1.000E+01  3.500E-02  1.209E+00
   1    6    8     5     1    1.0432E+01  2.2686E-01   1.0205E+01  0.000E+00  0.000E+00  0.000E+00  1.05868E+03  6.790E-01  1.542E+01  6.166E-02  1.226E+00
   1    7    7     5     2    1.0205E+01  2.7894E-01   9.9265E+00  0.000E+00  0.000E+00  0.000E+00  1.05417E+03  6.732E-01  1.519E+01  7.594E-02  1.224E+00
   1    8    7     5     3    9.9265E+00  1.9221E-01   9.7343E+00  0.000E+00  0.000E+00  0.000E+00  1.04992E+03  6.676E-01  1.497E+01  5.241E-02  1.223E+00
   1    8    6     5     4    9.7343E+00  1.3577E-01   9.5985E+00  0.000E+00  0.000E+00  0.000E+00  1.04691E+03  6.637E-01  1.482E+01  3.706E-02  1.221E+00
   1    9    6     6     1    9.6876E+00  2.2120E-01   9.4664E+00  0.000E+00  0.000E+00  0.000E+00  1.04341E+03  6.866E-01  1.200E+01  6.000E-02  1.229E+00
   1   10    7     6     2    9.4664E+00  2.2062E-01   9.2458E+00  0.000E+00  0.000E+00  0.000E+00  1.03886E+03  6.771E-01  1.200E+01  6.000E-02  1.226E+00
   1   11    7     6     3    9.2458E+00  2.2005E-01   9.0258E+00  0.000E+00  0.000E+00  0.000E+00  1.03430E+03  6.674E-01  1.200E+01  6.000E-02  1.222E+00
   1   12    7     6     4    9.0258E+00  2.1947E-01   8.8063E+00  0.000E+00  0.000E+00  0.000E+00  1.02975E+03  6.578E-01  1.200E+01  6.000E-02  1.219E+00
   1   13    7     6     5    8.8063E+00 -1.8927E-01   8.9956E+00  0.000E+00  0.000E+00  0.000E+00  1.02657E+03  6.571E-01  1.200E+01  2.400E-01 -2.629E-01
   1   14    9     7     1    1.5000E+02  1.1451E+00   1.4885E+02  0.000E+00  0.000E+00  0.000E+00  1.03987E+03  2.288E+00  5.530E+01  5.593E-01  6.824E-01
   1   13    8     7     2    1.4885E+02  1.6262E+00   1.4723E+02  0.000E+00  0.000E+00  0.000E+00  1.03478E+03  2.281E+00  5.526E+01  6.149E-01  8.816E-01
   1   13    7     7     3    1.4723E+02  1.3057E+00   1.4592E+02  0.000E+00  0.000E+00  0.000E+00  1.02969E+03  2.273E+00  5.523E+01  5.586E-01  7.792E-01
   1   13    6     8     1    1.5492E+02  6.9252E-01   1.5423E+02  0.000E+00  0.000E+00  0.000E+00  1.02472E+03  2.849E+00  4.131E+01  4.209E-01  5.484E-01
   1   13    5     8     2    1.5423E+02 -2.5362E-01   1.5448E+02  0.000E+00  0.000E+00  0.000E+00  1.01847E+03  2.847E+00  4.128E+01  4.207E+00 -2.010E-02
   1   13    4     8     3    1.5448E+02 -3.3509E+00   1.5783E+02  0.000E+00  0.000E+00  0.000E+00  1.01223E+03  2.860E+00  4.146E+01  4.225E+00 -2.643E-01
   1   13    3     8     4    1.5783E+02 -4.2664E+00   1.6210E+02  0.000E+00  0.000E+00  0.000E+00  1.00601E+03  2.886E+00  4.184E+01  4.264E+00 -3.335E-01
   1   13    2     8     5    1.6210E+02 -2.8286E+00   1.6493E+02  0.000E+00  0.000E+00  0.000E+00  9.99784E+02  2.909E+00  4.219E+01  4.299E+00 -2.193E-01
   1   13    1     8     6    1.6493E+02 -2.0351E+00   1.6696E+02  0.000E+00  0.000E+00  0.000E+00  9.94801E+02  2.926E+00  4.242E+01  2.594E+00 -2.615E-01
   1    6    8     9     1    0.0000E+00  0.0000E+00   0.0000E+00  0.000E+00  0.000E+00  0.000E+00  1.07850E+03  0.000E+00  4.000E+00  0.000E+00  1.000E+00



 UBDSV3 SAVING "     NETRECHARGE" ON UNIT 100 AT TIME STEP    10, STRESS PERIOD  12
 UBDSV3 SAVING "    NETDISCHARGE" ON UNIT 101 AT TIME STEP    10, STRESS PERIOD  12
 UBDSV3 SAVING "           GW ET" ON UNIT  61 AT TIME STEP    10, STRESS PERIOD  12
 UBDSV3 SAVING "    UZF RECHARGE" ON UNIT  61 AT TIME STEP    10, STRESS PERIOD  12
 UBDSV3 SAVING " SURFACE LEAKAGE" ON UNIT  61 AT TIME STEP    10, STRESS PERIOD  12
 UBDSV3 SAVING "       HORT+DUNN" ON UNIT  61 AT TIME STEP    10, STRESS PERIOD  12
 UBDSV3 SAVING "  STORAGE CHANGE" ON UNIT  61 AT TIME STEP    10, STRESS PERIOD  12


UNSATURATED ZONE PACKAGE VOLUMETRIC BUDGET FOR  TIME STEP    10 STRESS PERIOD   12
  ------------------------------------------------------------------------------



     CUMULATIVE VOLUMES      L**3       RATES FOR THIS TIME STEP      L**3/T
     ------------------                 ------------------------

           IN:                                      IN:
           ---                                      ---
        INFILTRATION =    17787597.4070          INFILTRATION =       0.0000E+00

          OUT:                                     OUT:
          ----                                     ----
              UZF ET =   544908199.8558                UZF ET =       0.0000E+00
        UZF RECHARGE =   670632097.8368          UZF RECHARGE =          21.8224

            IN - OUT = -1197752700.2856              IN - OUT =         -21.8224

          STORAGE:                                 STORAGE:
          --------                                 --------
      STORAGE CHANGE = -1197726846.5345        STORAGE CHANGE =         -21.8224

 PERCENT DISCREPANCY IS DIFFERENCE BETWEEN IN-OUT MINUS CHANGE IN STORAGE
 DIVIDED BY THE AVERAGE OF IN AND OUT TIMES 100

 PERCENT DISCREPANCY =          -0.00     PERCENT DISCREPANCY =           0.00






1
  VOLUMETRIC BUDGET FOR ENTIRE MODEL AT END OF TIME STEP   10, STRESS PERIOD  12
  ------------------------------------------------------------------------------

     CUMULATIVE VOLUMES      L**3       RATES FOR THIS TIME STEP      L**3/T
     ------------------                 ------------------------

           IN:                                      IN:
           ---                                      ---
             STORAGE     =    32666540.0000               STORAGE     =       2.1432E-02
       CONSTANT HEAD     =           0.0000         CONSTANT HEAD     =           0.0000
               WELLS     =           0.0000                 WELLS     =           0.0000
     HEAD DEP BOUNDS     =     7509694.0000       HEAD DEP BOUNDS     =           0.2728
      STREAM LEAKAGE     =   312175456.0000        STREAM LEAKAGE     =           9.4633
        UZF RECHARGE     =   670631872.0000          UZF RECHARGE     =          21.8224
               GW ET     =           0.0000                 GW ET     =           0.0000
     SURFACE LEAKAGE     =           0.0000       SURFACE LEAKAGE     =           0.0000
    SUPPLEMENTARY WELLS  =           0.0000      SUPPLEMENTARY WELLS  =           0.0000

                TOTAL IN =  1022983552.0000                  TOTAL IN =          31.5799

          OUT:                                     OUT:
          ----                                     ----
             STORAGE     =   651053504.0000               STORAGE     =          18.3471
       CONSTANT HEAD     =           0.0000         CONSTANT HEAD     =           0.0000
               WELLS     =           0.0000                 WELLS     =           0.0000
     HEAD DEP BOUNDS     =     7838512.0000       HEAD DEP BOUNDS     =           0.2882
      STREAM LEAKAGE     =   279568224.0000        STREAM LEAKAGE     =          12.9239
        UZF RECHARGE     =           0.0000          UZF RECHARGE     =           0.0000
               GW ET     =    84380688.0000                 GW ET     =       1.7500E-02
     SURFACE LEAKAGE     =           0.0000       SURFACE LEAKAGE     =           0.0000
    SUPPLEMENTARY WELLS  =       36673.0352      SUPPLEMENTARY WELLS  =           0.0000

               TOTAL OUT =  1022877632.0000                 TOTAL OUT =          31.5768

                IN - OUT =      105920.0000                  IN - OUT =       3.1242E-03

     PERCENT DISCREPANCY =           0.01         PERCENT DISCREPANCY =           0.01






         TIME SUMMARY AT END OF TIME STEP   10 IN STRESS PERIOD   12
                    SECONDS     MINUTES      HOURS       DAYS        YEARS
                    -----------------------------------------------------------
   TIME STEP LENGTH  87600.      1460.0      24.333      1.0139     2.77588E-03
 STRESS PERIOD TIME 8.76000E+05  14600.      243.33      10.139     2.77588E-02
         TOTAL TIME 2.72424E+07 4.54040E+05  7567.3      315.31     0.86326    
1
 
 SOLVING FOR HEAD 
                                                   Max.-Head-Change                         Max.-Flux-Residual
  Residual-Control   Outer-Iter.   Inner-Iter.     Column Row Layer    Maximum-Head-Change  Column Row Layer    Maximum-Flux-Residual          L2-NORM 
          0                 1           2             6   13     1       0.5857565390E-02       6   13    1         0.3122203245E+00      0.1259766970E+01
          0                 2           2            10   10     1       0.2131334565E-02      10   10    1         0.5535528543E-01      0.3270945604E+00
          0                 3           2            10   10     1       0.9578467978E-03      10   10    1         0.2487734923E-01      0.1260607128E+00
          0                 4           2            10   10     1       0.4304669263E-03      10   10    1         0.1118017013E-01      0.5504311055E-01
          0                 5           2            10   10     1       0.1934562840E-03      10   10    1         0.5024490503E-02      0.2456261574E-01
          0                 6           1            10   10     1       0.8694111503E-04      10   10    1         0.2258057300E-02      0.1099778285E-01
          0                 7           1            10   10     1       0.3907211208E-04      10   10    1         0.1014792388E-02      0.4926870325E-02
          0                 8           1            10   10     1       0.1755932767E-04      10   10    1         0.4560566126E-03      0.2207438820E-02
          0                 9           1            10   10     1       0.7891293546E-05      10   10    1         0.2049555224E-03      0.9890750814E-03

    ------------------------------------------------
       NWT REQUIRED            9 OUTER ITERATIONS 
       AND A TOTAL OF         14 INNER ITERATIONS.
    ------------------------------------------------

 NO OUTPUT CONTROL FOR STRESS PERIOD   12   TIME STEP   11
 
 SOLVING FOR HEAD 
                                                   Max.-Head-Change                         Max.-Flux-Residual
  Residual-Control   Outer-Iter.   Inner-Iter.     Column Row Layer    Maximum-Head-Change  Column Row Layer    Maximum-Flux-Residual          L2-NORM 
          0                 1           2             6   13     1       0.5725101091E-02       6   13    1         0.3051422755E+00      0.1256142162E+01
          0                 2           2            10   10     1       0.2130302671E-02      10   10    1         0.5532856045E-01      0.3266555178E+00
          0                 3           2            10   10     1       0.9573814575E-03      10   10    1         0.2486529721E-01      0.1259044376E+00
          0                 4           2            10   10     1       0.4302570819E-03      10   10    1         0.1117473520E-01      0.5497310118E-01
          0                 5           2            10   10     1       0.1933616567E-03      10   10    1         0.5022039640E-02      0.2453123856E-01
          0                 6           1            10   10     1       0.8689844508E-04      10   10    1         0.2256952117E-02      0.1098374828E-01
          0                 7           1            10   10     1       0.3905287104E-04      10   10    1         0.1014294030E-02      0.4920595124E-02
          0                 8           1            10   10     1       0.1755065182E-04      10   10    1         0.4558318953E-03      0.2204632457E-02
          0                 9           1            10   10     1       0.7887381309E-05      10   10    1         0.2048541961E-03      0.9878207540E-03

    ------------------------------------------------
       NWT REQUIRED            9 OUTER ITERATIONS 
       AND A TOTAL OF         14 INNER ITERATIONS.
    ------------------------------------------------

 NO OUTPUT CONTROL FOR STRESS PERIOD   12   TIME STEP   12
 
 SOLVING FOR HEAD 
                                                   Max.-Head-Change                         Max.-Flux-Residual
  Residual-Control   Outer-Iter.   Inner-Iter.     Column Row Layer    Maximum-Head-Change  Column Row Layer    Maximum-Flux-Residual          L2-NORM 
          0                 1           2             6   13     1       0.5596164324E-02       6   13    1         0.2982506402E+00      0.1252575168E+01
          0                 2           2            10   10     1       0.2129218671E-02      10   10    1         0.5530048065E-01      0.3262327311E+00
          0                 3           2            10   10     1       0.9568927320E-03      10   10    1         0.2485263714E-01      0.1257530130E+00
          0                 4           2            10   10     1       0.4300367423E-03      10   10    1         0.1116902738E-01      0.5490515499E-01
          0                 5           2            10   10     1       0.1932623196E-03      10   10    1         0.5019466307E-02      0.2450068928E-01
          0                 6           1            10   10     1       0.8685366095E-04      10   10    1         0.2255791966E-02      0.1097003873E-01
          0                 7           1            10   10     1       0.3903268133E-04      10   10    1         0.1013770999E-02      0.4914447162E-02
          0                 8           1            10   10     1       0.1754155003E-04      10   10    1         0.4555961017E-03      0.2201877214E-02
          0                 9           1            10   10     1       0.7883278237E-05      10   10    1         0.2047478969E-03      0.9865859123E-03

    ------------------------------------------------
       NWT REQUIRED            9 OUTER ITERATIONS 
       AND A TOTAL OF         14 INNER ITERATIONS.
    ------------------------------------------------

 NO OUTPUT CONTROL FOR STRESS PERIOD   12   TIME STEP   13
 
 SOLVING FOR HEAD 
                                                   Max.-Head-Change                         Max.-Flux-Residual
  Residual-Control   Outer-Iter.   Inner-Iter.     Column Row Layer    Maximum-Head-Change  Column Row Layer    Maximum-Flux-Residual          L2-NORM 
          0                 1           2             6   13     1       0.5470887084E-02       6   13    1         0.2915527252E+00      0.1248976880E+01
          0                 2           2            10   10     1       0.2128180558E-02      10   10    1         0.5527359330E-01      0.3257933883E+00
          0                 3           2            10   10     1       0.9564246159E-03      10   10    1         0.2484051263E-01      0.1255988286E+00
          0                 4           2            10   10     1       0.4298256588E-03      10   10    1         0.1116356009E-01      0.5483650626E-01
          0                 5           2            10   10     1       0.1931671391E-03      10   10    1         0.5017000996E-02      0.2446991092E-01
          0                 6           1            10   10     1       0.8681074365E-04      10   10    1         0.2254680331E-02      0.1095625266E-01
          0                 7           1            10   10     1       0.3901333049E-04      10   10    1         0.1013269765E-02      0.4908274551E-02
          0                 8           1            10   10     1       0.1753282491E-04      10   10    1         0.4553700970E-03      0.2199113490E-02
          0                 9           1            10   10     1       0.7879344241E-05      10   10    1         0.2046459960E-03      0.9853503028E-03

    ------------------------------------------------
       NWT REQUIRED            9 OUTER ITERATIONS 
       AND A TOTAL OF         14 INNER ITERATIONS.
    ------------------------------------------------

 NO OUTPUT CONTROL FOR STRESS PERIOD   12   TIME STEP   14
 
 SOLVING FOR HEAD 
                                                   Max.-Head-Change                         Max.-Flux-Residual
  Residual-Control   Outer-Iter.   Inner-Iter.     Column Row Layer    Maximum-Head-Change  Column Row Layer    Maximum-Flux-Residual          L2-NORM 
          0                 1           2             6   13     1       0.5349087447E-02       6   13    1         0.2850390478E+00      0.1245523511E+01
          0                 2           2            10   10     1       0.2127090214E-02      10   10    1         0.5524535013E-01      0.3253531230E+00
          0                 3           2            10   10     1       0.9559330102E-03      10   10    1         0.2482777838E-01      0.1254426173E+00
          0                 4           2            10   10     1       0.4296040119E-03      10   10    1         0.1115781860E-01      0.5476720293E-01
          0                 5           2            10   10     1       0.1930672090E-03      10   10    1         0.5014412378E-02      0.2443887389E-01
          0                 6           1            10   10     1       0.8676569064E-04      10   10    1         0.2253513241E-02      0.1094236986E-01
          0                 7           1            10   10     1       0.3899301872E-04      10   10    1         0.1012743584E-02      0.4902066430E-02
          0                 8           1            10   10     1       0.1752366759E-04      10   10    1         0.4551328737E-03      0.2196337420E-02
          0                 9           1            10   10     1       0.7875216158E-05      10   10    1         0.2045390490E-03      0.9841072488E-03

    ------------------------------------------------
       NWT REQUIRED            9 OUTER ITERATIONS 
       AND A TOTAL OF         14 INNER ITERATIONS.
    ------------------------------------------------

 OUTPUT CONTROL FOR STRESS PERIOD   12   TIME STEP   15
    PRINT BUDGET
    PRINT HEAD FOR ALL LAYERS
    SAVE HEAD FOR ALL LAYERS
    SAVE BUDGET
 UBUDSV SAVING "         STORAGE" ON UNIT102 AT TIME STEP    15, STRESS PERIOD   12
 UBUDSV SAVING "   CONSTANT HEAD" ON UNIT102 AT TIME STEP    15, STRESS PERIOD   12
 UBUDSV SAVING "FLOW RIGHT FACE " ON UNIT102 AT TIME STEP    15, STRESS PERIOD   12
 UBUDSV SAVING "FLOW FRONT FACE " ON UNIT102 AT TIME STEP    15, STRESS PERIOD   12

  HEAD DEP BOUNDS   PERIOD   12   STEP    15
 BOUNDARY      1   LAYER   1   ROW    13   COL     1   RATE   -0.288415    
 BOUNDARY      2   LAYER   1   ROW    14   COL     9   RATE    0.272785    



 STREAM LISTING     PERIOD     12   STEP       15

 LAYER ROW COL. STREAM  RCH.  FLOW INTO     FLOW TO   FLOW OUT OF   OVRLND.     DIRECT     STREAM       STREAM     STREAM     STREAM   STREAMBED  STREAMBED
                SEG.NO.  NO.  STRM. RCH.    AQUIFER    STRM. RCH.    RUNOFF     PRECIP       ET          HEAD       DEPTH      WIDTH   CONDCTNC.   GRADIENT

   1    1    1     1     1    3.5000E+00  8.3255E-02   3.4167E+00  0.000E+00  0.000E+00  0.000E+00  1.09371E+03  6.654E-01  5.047E+00  2.271E-02  1.222E+00
   1    2    2     1     2    3.4167E+00  1.2792E-01   3.2888E+00  0.000E+00  0.000E+00  0.000E+00  1.08872E+03  6.583E-01  4.995E+00  3.497E-02  1.219E+00
   1    3    3     1     3    3.2888E+00  1.0809E-01   3.1807E+00  0.000E+00  0.000E+00  0.000E+00  1.08307E+03  6.502E-01  4.935E+00  2.961E-02  1.217E+00
   1    3    4     1     4    3.1807E+00  9.8702E-02   3.0820E+00  0.000E+00  0.000E+00  0.000E+00  1.07805E+03  6.428E-01  4.882E+00  2.709E-02  1.214E+00
   1    4    5     2     1    1.0820E+00  2.4731E-01   8.3473E-01  0.000E+00  0.000E+00  0.000E+00  1.07210E+03  1.706E-01  1.200E+01  7.800E-02  1.057E+00
   1    5    6     2     2    8.3473E-01  1.8877E-01   6.4596E-01  0.000E+00  0.000E+00  0.000E+00  1.06666E+03  1.462E-01  1.200E+01  6.000E-02  1.049E+00
   1    6    6     2     3    6.4596E-01  1.8736E-01   4.5860E-01  0.000E+00  0.000E+00  0.000E+00  1.06192E+03  1.226E-01  1.200E+01  6.000E-02  1.041E+00
   1    7    6     2     4    4.5860E-01  1.8574E-01   2.7286E-01  0.000E+00  0.000E+00  0.000E+00  1.05717E+03  9.573E-02  1.200E+01  6.000E-02  1.032E+00
   1    8    6     2     5    2.7286E-01  1.8377E-01   8.9092E-02  0.000E+00  0.000E+00  0.000E+00  1.05242E+03  6.276E-02  1.200E+01  6.000E-02  1.021E+00
   1    3    5     3     1    2.0000E+00  2.8252E-01   1.7175E+00  0.000E+00  0.000E+00  0.000E+00  1.07555E+03  1.909E+00  9.636E+00  7.227E-02  1.955E+00
   1    3    6     3     2    1.7175E+00  2.4905E-01   1.4684E+00  0.000E+00  0.000E+00  0.000E+00  1.07264E+03  1.727E+00  8.909E+00  6.682E-02  1.864E+00
   1    3    7     3     3    1.4684E+00  1.9718E-01   1.2712E+00  0.000E+00  0.000E+00  0.000E+00  1.06987E+03  1.555E+00  8.218E+00  5.547E-02  1.777E+00
   1    4    8     3     4    1.2712E+00  2.2567E-01   1.0456E+00  0.000E+00  0.000E+00  0.000E+00  1.06682E+03  1.364E+00  7.455E+00  6.709E-02  1.682E+00
   1    5    8     3     5    1.0456E+00  1.5790E-01   8.8768E-01  0.000E+00  0.000E+00  0.000E+00  1.06362E+03  1.164E+00  6.655E+00  4.991E-02  1.582E+00
   1    6    8     3     6    8.8768E-01  5.5980E-02   8.3170E-01  0.000E+00  0.000E+00  0.000E+00  1.06158E+03  1.036E+00  6.145E+00  1.844E-02  1.518E+00
   1    5   10     4     1    1.0000E+01  9.0919E-02   9.9091E+00  0.000E+00  0.000E+00  0.000E+00  1.07836E+03  6.368E-01  1.000E+01  2.500E-02  1.212E+00
   1    5    9     4     2    9.9091E+00  1.8158E-01   9.7275E+00  0.000E+00  0.000E+00  0.000E+00  1.07154E+03  6.315E-01  1.000E+01  5.000E-02  1.211E+00
   1    6    8     4     3    9.7275E+00  1.2689E-01   9.6006E+00  0.000E+00  0.000E+00  0.000E+00  1.06381E+03  6.256E-01  1.000E+01  3.500E-02  1.209E+00
   1    6    8     5     1    1.0432E+01  2.2686E-01   1.0205E+01  0.000E+00  0.000E+00  0.000E+00  1.05868E+03  6.790E-01  1.542E+01  6.166E-02  1.226E+00
   1    7    7     5     2    1.0205E+01  2.7894E-01   9.9265E+00  0.000E+00  0.000E+00  0.000E+00  1.05417E+03  6.732E-01  1.519E+01  7.594E-02  1.224E+00
   1    8    7     5     3    9.9265E+00  1.9221E-01   9.7343E+00  0.000E+00  0.000E+00  0.000E+00  1.04992E+03  6.676E-01  1.497E+01  5.241E-02  1.223E+00
   1    8    6     5     4    9.7343E+00  1.3577E-01   9.5985E+00  0.000E+00  0.000E+00  0.000E+00  1.04691E+03  6.637E-01  1.482E+01  3.706E-02  1.221E+00
   1    9    6     6     1    9.6876E+00  2.2120E-01   9.4664E+00  0.000E+00  0.000E+00  0.000E+00  1.04341E+03  6.866E-01  1.200E+01  6.000E-02  1.229E+00
   1   10    7     6     2    9.4664E+00  2.2062E-01   9.2458E+00  0.000E+00  0.000E+00  0.000E+00  1.03886E+03  6.771E-01  1.200E+01  6.000E-02  1.226E+00
   1   11    7     6     3    9.2458E+00  2.2005E-01   9.0258E+00  0.000E+00  0.000E+00  0.000E+00  1.03430E+03  6.674E-01  1.200E+01  6.000E-02  1.222E+00
   1   12    7     6     4    9.0258E+00  2.1947E-01   8.8063E+00  0.000E+00  0.000E+00  0.000E+00  1.02975E+03  6.578E-01  1.200E+01  6.000E-02  1.219E+00
   1   13    7     6     5    8.8063E+00 -1.9341E-01   8.9997E+00  0.000E+00  0.000E+00  0.000E+00  1.02657E+03  6.572E-01  1.200E+01  2.400E-01 -2.686E-01
   1   14    9     7     1    1.5000E+02  1.1452E+00   1.4885E+02  0.000E+00  0.000E+00  0.000E+00  1.03987E+03  2.288E+00  5.530E+01  5.593E-01  6.825E-01
   1   13    8     7     2    1.4885E+02  1.6220E+00   1.4723E+02  0.000E+00  0.000E+00  0.000E+00  1.03478E+03  2.281E+00  5.526E+01  6.149E-01  8.794E-01
   1   13    7     7     3    1.4723E+02  1.2961E+00   1.4594E+02  0.000E+00  0.000E+00  0.000E+00  1.02969E+03  2.273E+00  5.523E+01  5.586E-01  7.734E-01
   1   13    6     8     1    1.5494E+02  6.8189E-01   1.5425E+02  0.000E+00  0.000E+00  0.000E+00  1.02472E+03  2.849E+00  4.131E+01  4.210E-01  5.400E-01
   1   13    5     8     2    1.5425E+02 -2.9110E-01   1.5455E+02  0.000E+00  0.000E+00  0.000E+00  1.01847E+03  2.848E+00  4.129E+01  4.208E+00 -2.306E-02
   1   13    4     8     3    1.5455E+02 -3.3626E+00   1.5791E+02  0.000E+00  0.000E+00  0.000E+00  1.01224E+03  2.860E+00  4.147E+01  4.226E+00 -2.652E-01
   1   13    3     8     4    1.5791E+02 -4.2705E+00   1.6218E+02  0.000E+00  0.000E+00  0.000E+00  1.00601E+03  2.886E+00  4.185E+01  4.265E+00 -3.338E-01
   1   13    2     8     5    1.6218E+02 -2.8307E+00   1.6501E+02  0.000E+00  0.000E+00  0.000E+00  9.99785E+02  2.910E+00  4.219E+01  4.300E+00 -2.194E-01
   1   13    1     8     6    1.6501E+02 -2.0460E+00   1.6706E+02  0.000E+00  0.000E+00  0.000E+00  9.94801E+02  2.926E+00  4.243E+01  2.594E+00 -2.629E-01
   1    6    8     9     1    0.0000E+00  0.0000E+00   0.0000E+00  0.000E+00  0.000E+00  0.000E+00  1.07850E+03  0.000E+00  4.000E+00  0.000E+00  1.000E+00



 UBDSV3 SAVING "     NETRECHARGE" ON UNIT 100 AT TIME STEP    15, STRESS PERIOD  12
 UBDSV3 SAVING "    NETDISCHARGE" ON UNIT 101 AT TIME STEP    15, STRESS PERIOD  12
 UBDSV3 SAVING "           GW ET" ON UNIT  61 AT TIME STEP    15, STRESS PERIOD  12
 UBDSV3 SAVING "    UZF RECHARGE" ON UNIT  61 AT TIME STEP    15, STRESS PERIOD  12
 UBDSV3 SAVING " SURFACE LEAKAGE" ON UNIT  61 AT TIME STEP    15, STRESS PERIOD  12
 UBDSV3 SAVING "       HORT+DUNN" ON UNIT  61 AT TIME STEP    15, STRESS PERIOD  12
 UBDSV3 SAVING "  STORAGE CHANGE" ON UNIT  61 AT TIME STEP    15, STRESS PERIOD  12


UNSATURATED ZONE PACKAGE VOLUMETRIC BUDGET FOR  TIME STEP    15 STRESS PERIOD   12
  ------------------------------------------------------------------------------



     CUMULATIVE VOLUMES      L**3       RATES FOR THIS TIME STEP      L**3/T
     ------------------                 ------------------------

           IN:                                      IN:
           ---                                      ---
        INFILTRATION =    17787597.4070          INFILTRATION =       0.0000E+00

          OUT:                                     OUT:
          ----                                     ----
              UZF ET =   544908199.8558                UZF ET =       0.0000E+00
        UZF RECHARGE =   680184664.8091          UZF RECHARGE =          21.7844

            IN - OUT = -1207305267.2579              IN - OUT =         -21.7844

          STORAGE:                                 STORAGE:
          --------                                 --------
      STORAGE CHANGE = -1207279413.5064        STORAGE CHANGE =         -21.7844

 PERCENT DISCREPANCY IS DIFFERENCE BETWEEN IN-OUT MINUS CHANGE IN STORAGE
 DIVIDED BY THE AVERAGE OF IN AND OUT TIMES 100

 PERCENT DISCREPANCY =          -0.00     PERCENT DISCREPANCY =           0.00






1
              HEAD IN LAYER   1 AT END OF TIME STEP    15 IN STRESS PERIOD   12
  -----------------------------------------------------------------------------

           1       2       3       4       5       6       7       8       9      10
 ...................................................................................
   1  1036.13 1034.49 6999.00 6999.00 6999.00 6999.00 6999.00 6999.00 6999.00 6999.00
   2  1035.88 1034.07 1033.26 6999.00 6999.00 1035.05 1035.32 1035.46 6999.00 6999.00
   3  6999.00 1033.39 1032.64 1032.26 1032.83 1033.62 1034.43 1034.75 6999.00 6999.00
   4  1032.84 1032.67 1032.04 1031.48 1031.44 1031.50 1032.31 1033.73 1033.75 6999.00
   5  1032.34 1031.77 1031.13 1030.62 1030.64 1030.84 1031.04 1031.61 1032.41 1032.97
   6  1031.72 1030.90 1030.19 1029.73 1029.79 1030.13 1030.47 1031.10 1032.19 1033.75
   7  1031.16 1029.82 1029.10 1028.69 1028.82 1029.25 1029.75 1030.40 1031.92 6999.00
   8  6999.00 1028.25 1027.73 1027.44 1027.62 1028.13 1028.65 1029.93 1031.44 6999.00
   9  6999.00 1025.90 1025.74 1025.73 1026.07 1026.75 1027.36 1028.84 1030.72 6999.00
  10  6999.00 1022.69 1022.98 1023.58 1024.33 1025.37 1026.36 1028.15 1030.46 1031.27
  11  6999.00 1017.61 1018.48 1020.75 1022.38 1024.14 1025.76 1028.21 1031.10 6999.00
  12  1003.38 1009.12 1012.85 1016.87 1020.18 1023.19 1025.70 1029.40 1033.16 6999.00
  13   995.59 1000.44 1007.01 1013.03 1018.54 1023.10 1027.37 1032.14 1035.30 6999.00
  14  6999.00 1007.70 1010.39 1014.95 1019.69 1024.11 1028.79 1033.99 1037.82 6999.00
  15  6999.00 6999.00 1015.09 1017.78 1021.22 1024.04 6999.00 6999.00 6999.00 6999.00

 HEAD WILL BE SAVED ON UNIT   62 AT END OF TIME STEP   15, STRESS PERIOD   12
1
  VOLUMETRIC BUDGET FOR ENTIRE MODEL AT END OF TIME STEP   15, STRESS PERIOD  12
  ------------------------------------------------------------------------------

     CUMULATIVE VOLUMES      L**3       RATES FOR THIS TIME STEP      L**3/T
     ------------------                 ------------------------

           IN:                                      IN:
           ---                                      ---
             STORAGE     =    32676178.0000               STORAGE     =       2.2399E-02
       CONSTANT HEAD     =           0.0000         CONSTANT HEAD     =           0.0000
               WELLS     =           0.0000                 WELLS     =           0.0000
     HEAD DEP BOUNDS     =     7629173.0000       HEAD DEP BOUNDS     =           0.2728
      STREAM LEAKAGE     =   316313888.0000        STREAM LEAKAGE     =           9.4389
        UZF RECHARGE     =   680184384.0000          UZF RECHARGE     =          21.7844
               GW ET     =           0.0000                 GW ET     =           0.0000
     SURFACE LEAKAGE     =           0.0000       SURFACE LEAKAGE     =           0.0000
    SUPPLEMENTARY WELLS  =           0.0000      SUPPLEMENTARY WELLS  =           0.0000

                TOTAL IN =  1036803584.0000                  TOTAL IN =          31.5184

          OUT:                                     OUT:
          ----                                     ----
             STORAGE     =   659058688.0000               STORAGE     =          18.2151
       CONSTANT HEAD     =           0.0000         CONSTANT HEAD     =           0.0000
               WELLS     =           0.0000                 WELLS     =           0.0000
     HEAD DEP BOUNDS     =     7964808.5000       HEAD DEP BOUNDS     =           0.2884
      STREAM LEAKAGE     =   285247840.0000        STREAM LEAKAGE     =          12.9943
        UZF RECHARGE     =           0.0000          UZF RECHARGE     =           0.0000
               GW ET     =    84388368.0000                 GW ET     =       1.7500E-02
     SURFACE LEAKAGE     =           0.0000       SURFACE LEAKAGE     =           0.0000
    SUPPLEMENTARY WELLS  =       36673.0352      SUPPLEMENTARY WELLS  =           0.0000

               TOTAL OUT =  1036696384.0000                 TOTAL OUT =          31.5153

                IN - OUT =      107200.0000                  IN - OUT =       3.1071E-03

     PERCENT DISCREPANCY =           0.01         PERCENT DISCREPANCY =           0.01






         TIME SUMMARY AT END OF TIME STEP   15 IN STRESS PERIOD   12
                    SECONDS     MINUTES      HOURS       DAYS        YEARS
                    -----------------------------------------------------------
   TIME STEP LENGTH  87600.      1460.0      24.333      1.0139     2.77588E-03
 STRESS PERIOD TIME 1.31400E+06  21900.      365.00      15.208     4.16381E-02
         TOTAL TIME 2.76804E+07 4.61340E+05  7689.0      320.38     0.87714    
1
 
 SOLVING FOR HEAD 
                                                   Max.-Head-Change                         Max.-Flux-Residual
  Residual-Control   Outer-Iter.   Inner-Iter.     Column Row Layer    Maximum-Head-Change  Column Row Layer    Maximum-Flux-Residual          L2-NORM 
          0                 1           2             6   13     1       0.5230681020E-02       6   13    1         0.2787054533E+00      0.1242212188E+01
          0                 2           2            10   10     1       0.2125996975E-02      10   10    1         0.5521702900E-01      0.3249195517E+00
          0                 3           2            10   10     1       0.9554401621E-03      10   10    1         0.2481501061E-01      0.1252884429E+00
          0                 4           2            10   10     1       0.4293818330E-03      10   10    1         0.1115206273E-01      0.5469857520E-01
          0                 5           2            10   10     1       0.1929670510E-03      10   10    1         0.5011817607E-02      0.2440816213E-01
          0                 6           1            10   10     1       0.8672054060E-04      10   10    1         0.2252343534E-02      0.1092862979E-01
          0                 7           1            10   10     1       0.3897266593E-04      10   10    1         0.1012216295E-02      0.4895920847E-02
          0                 8           1            10   10     1       0.1751449327E-04      10   10    1         0.4548951865E-03      0.2193588601E-02
          0                 9           1            10   10     1       0.7871080572E-05      10   10    1         0.2044319061E-03      0.9828775617E-03

    ------------------------------------------------
       NWT REQUIRED            9 OUTER ITERATIONS 
       AND A TOTAL OF         14 INNER ITERATIONS.
    ------------------------------------------------

 NO OUTPUT CONTROL FOR STRESS PERIOD   12   TIME STEP   16
 
 SOLVING FOR HEAD 
                                                   Max.-Head-Change                         Max.-Flux-Residual
  Residual-Control   Outer-Iter.   Inner-Iter.     Column Row Layer    Maximum-Head-Change  Column Row Layer    Maximum-Flux-Residual          L2-NORM 
          0                 1           2             6   13     1       0.5115084652E-02       6   13    1         0.2725449878E+00      0.1239083892E+01
          0                 2           2            10   10     1       0.2124949569E-02      10   10    1         0.5518990118E-01      0.3245058706E+00
          0                 3           2            10   10     1       0.9549678514E-03      10   10    1         0.2480277754E-01      0.1251361716E+00
          0                 4           2            10   10     1       0.4291688565E-03      10   10    1         0.1114654644E-01      0.5462997078E-01
          0                 5           2            10   10     1       0.1928710166E-03      10   10    1         0.5009330185E-02      0.2437737268E-01
          0                 6           1            10   10     1       0.8667723812E-04      10   10    1         0.2251221919E-02      0.1091484756E-01
          0                 7           1            10   10     1       0.3895314076E-04      10   10    1         0.1011710552E-02      0.4889754898E-02
          0                 8           1            10   10     1       0.1750568961E-04      10   10    1         0.4546671493E-03      0.2190830234E-02
          0                 9           1            10   10     1       0.7867111309E-05      10   10    1         0.2043290884E-03      0.9816440730E-03

    ------------------------------------------------
       NWT REQUIRED            9 OUTER ITERATIONS 
       AND A TOTAL OF         14 INNER ITERATIONS.
    ------------------------------------------------

 NO OUTPUT CONTROL FOR STRESS PERIOD   12   TIME STEP   17
 
 SOLVING FOR HEAD 
                                                   Max.-Head-Change                         Max.-Flux-Residual
  Residual-Control   Outer-Iter.   Inner-Iter.     Column Row Layer    Maximum-Head-Change  Column Row Layer    Maximum-Flux-Residual          L2-NORM 
          0                 1           2             6   13     1       0.5002633058E-02       6   13    1         0.2665258896E+00      0.1236291675E+01
          0                 2           2            10   10     1       0.2123850265E-02      10   10    1         0.5516142156E-01      0.3241351447E+00
          0                 3           2            10   10     1       0.9544722984E-03      10   10    1         0.2478993909E-01      0.1249905949E+00
          0                 4           2            10   10     1       0.4289454710E-03      10   10    1         0.1114075904E-01      0.5456379386E-01
          0                 5           2            10   10     1       0.1927703209E-03      10   10    1         0.5006721350E-02      0.2434753575E-01
          0                 6           1            10   10     1       0.8663184822E-04      10   10    1         0.2250045933E-02      0.1090144010E-01
          0                 7           1            10   10     1       0.3893268093E-04      10   10    1         0.1011180461E-02      0.4883736743E-02
          0                 8           1            10   10     1       0.1749646726E-04      10   10    1         0.4544282065E-03      0.2188130496E-02
          0                 9           1            10   10     1       0.7862954464E-05      10   10    1         0.2042213854E-03      0.9804333433E-03

    ------------------------------------------------
       NWT REQUIRED            9 OUTER ITERATIONS 
       AND A TOTAL OF         14 INNER ITERATIONS.
    ------------------------------------------------

 NO OUTPUT CONTROL FOR STRESS PERIOD   12   TIME STEP   18
 
 SOLVING FOR HEAD 
                                                   Max.-Head-Change                         Max.-Flux-Residual
  Residual-Control   Outer-Iter.   Inner-Iter.     Column Row Layer    Maximum-Head-Change  Column Row Layer    Maximum-Flux-Residual          L2-NORM 
          0                 1           2             6   13     1       0.4893487633E-02       6   13    1         0.2606828366E+00      0.1233267817E+01
          0                 2           2            10   10     1       0.2122747974E-02      10   10    1         0.5513286624E-01      0.3237032613E+00
          0                 3           2            10   10     1       0.9539753630E-03      10   10    1         0.2477706558E-01      0.1248364352E+00
          0                 4           2            10   10     1       0.4287214466E-03      10   10    1         0.1113495541E-01      0.5449594513E-01
          0                 5           2            10   10     1       0.1926693296E-03      10   10    1         0.5004105012E-02      0.2431719618E-01
          0                 6           1            10   10     1       0.8658632126E-04      10   10    1         0.2248866477E-02      0.1088785258E-01
          0                 7           1            10   10     1       0.3891215807E-04      10   10    1         0.1010648773E-02      0.4877651245E-02
          0                 8           1            10   10     1       0.1748721616E-04      10   10    1         0.4541885314E-03      0.2185405107E-02
          0                 9           1            10   10     1       0.7858784112E-05      10   10    1         0.2041133451E-03      0.9792124474E-03

    ------------------------------------------------
       NWT REQUIRED            9 OUTER ITERATIONS 
       AND A TOTAL OF         14 INNER ITERATIONS.
    ------------------------------------------------

 NO OUTPUT CONTROL FOR STRESS PERIOD   12   TIME STEP   19
 
 SOLVING FOR HEAD 
                                                   Max.-Head-Change                         Max.-Flux-Residual
  Residual-Control   Outer-Iter.   Inner-Iter.     Column Row Layer    Maximum-Head-Change  Column Row Layer    Maximum-Flux-Residual          L2-NORM 
          0                 1           2             6   13     1       0.4787452946E-02       6   13    1         0.2550057033E+00      0.1230204430E+01
          0                 2           2            10   10     1       0.2121642755E-02      10   10    1         0.5510423446E-01      0.3232702719E+00
          0                 3           2            10   10     1       0.9534771203E-03      10   10    1         0.2476415794E-01      0.1246825774E+00
          0                 4           2            10   10     1       0.4284968379E-03      10   10    1         0.1112913655E-01      0.5442798565E-01
          0                 5           2            10   10     1       0.1925680771E-03      10   10    1         0.5001481863E-02      0.2428679654E-01
          0                 6           1            10   10     1       0.8654067799E-04      10   10    1         0.2247683981E-02      0.1087424941E-01
          0                 7           1            10   10     1       0.3889158343E-04      10   10    1         0.1010115720E-02      0.4871564798E-02
          0                 8           1            10   10     1       0.1747794129E-04      10   10    1         0.4539482360E-03      0.2182681815E-02
          0                 9           1            10   10     1       0.7854603256E-05      10   10    1         0.2040050249E-03      0.9779943255E-03

    ------------------------------------------------
       NWT REQUIRED            9 OUTER ITERATIONS 
       AND A TOTAL OF         14 INNER ITERATIONS.
    ------------------------------------------------

 NO OUTPUT CONTROL FOR STRESS PERIOD   12   TIME STEP   20
 
 SOLVING FOR HEAD 
                                                   Max.-Head-Change                         Max.-Flux-Residual
  Residual-Control   Outer-Iter.   Inner-Iter.     Column Row Layer    Maximum-Head-Change  Column Row Layer    Maximum-Flux-Residual          L2-NORM 
          0                 1           2            10   10     1       0.4718646211E-02       6   13    1         0.2494897483E+00      0.1227701893E+01
          0                 2           2            10   10     1       0.2120583571E-02      10   10    1         0.5507679896E-01      0.3228868822E+00
          0                 3           2            10   10     1       0.9529995533E-03      10   10    1         0.2475178757E-01      0.1245278005E+00
          0                 4           2            10   10     1       0.4282815155E-03      10   10    1         0.1112355899E-01      0.5435851996E-01
          0                 5           2            10   10     1       0.1924709960E-03      10   10    1         0.4998967103E-02      0.2425583209E-01
          0                 6           1            10   10     1       0.8649690856E-04      10   10    1         0.2246550167E-02      0.1086045311E-01
          0                 7           1            10   10     1       0.3887184967E-04      10   10    1         0.1009604532E-02      0.4865410592E-02
          0                 8           1            10   10     1       0.1746904459E-04      10   10    1         0.4537177715E-03      0.2179933868E-02
          0                 9           1            10   10     1       0.7850592475E-05      10   10    1         0.2039011245E-03      0.9767686043E-03

    ------------------------------------------------
       NWT REQUIRED            9 OUTER ITERATIONS 
       AND A TOTAL OF         14 INNER ITERATIONS.
    ------------------------------------------------

 NO OUTPUT CONTROL FOR STRESS PERIOD   12   TIME STEP   21
 
 SOLVING FOR HEAD 
                                                   Max.-Head-Change                         Max.-Flux-Residual
  Residual-Control   Outer-Iter.   Inner-Iter.     Column Row Layer    Maximum-Head-Change  Column Row Layer    Maximum-Flux-Residual          L2-NORM 
          0                 1           2            10   10     1       0.4716181343E-02       6   13    1         0.2441352114E+00      0.1225433473E+01
          0                 2           2            10   10     1       0.2119472429E-02      10   10    1         0.5504801243E-01      0.3225258638E+00
          0                 3           2            10   10     1       0.9524986681E-03      10   10    1         0.2473881087E-01      0.1243774669E+00
          0                 4           2            10   10     1       0.4280557283E-03      10   10    1         0.1111770932E-01      0.5429047005E-01
          0                 5           2            10   10     1       0.1923692181E-03      10   10    1         0.4996330219E-02      0.2422536367E-01
          0                 6           1            10   10     1       0.8645103144E-04      10   10    1         0.2245361553E-02      0.1084683733E-01
          0                 7           1            10   10     1       0.3885117024E-04      10   10    1         0.1009068753E-02      0.4859324779E-02
          0                 8           1            10   10     1       0.1745972370E-04      10   10    1         0.4534762712E-03      0.2177212779E-02
          0                 9           1            10   10     1       0.7846391110E-05      10   10    1         0.2037922689E-03      0.9755486969E-03

    ------------------------------------------------
       NWT REQUIRED            9 OUTER ITERATIONS 
       AND A TOTAL OF         14 INNER ITERATIONS.
    ------------------------------------------------

 NO OUTPUT CONTROL FOR STRESS PERIOD   12   TIME STEP   22
 
 SOLVING FOR HEAD 
                                                   Max.-Head-Change                         Max.-Flux-Residual
  Residual-Control   Outer-Iter.   Inner-Iter.     Column Row Layer    Maximum-Head-Change  Column Row Layer    Maximum-Flux-Residual          L2-NORM 
          0                 1           2            10   10     1       0.4713709984E-02       6   13    1         0.2389381060E+00      0.1222811246E+01
          0                 2           2            10   10     1       0.2118358282E-02      10   10    1         0.5501914973E-01      0.3221042200E+00
          0                 3           2            10   10     1       0.9519963934E-03      10   10    1         0.2472579893E-01      0.1242278178E+00
          0                 4           2            10   10     1       0.4278292995E-03      10   10    1         0.1111184336E-01      0.5422495355E-01
          0                 5           2            10   10     1       0.1922671443E-03      10   10    1         0.4993685809E-02      0.2419603252E-01
          0                 6           1            10   10     1       0.8640501726E-04      10   10    1         0.2244169458E-02      0.1083367244E-01
          0                 7           1            10   10     1       0.3883042803E-04      10   10    1         0.1008531370E-02      0.4853418453E-02
          0                 8           1            10   10     1       0.1745037355E-04      10   10    1         0.4532340264E-03      0.2174562116E-02
          0                 9           1            10   10     1       0.7842176489E-05      10   10    1         0.2036830704E-03      0.9743602847E-03

    ------------------------------------------------
       NWT REQUIRED            9 OUTER ITERATIONS 
       AND A TOTAL OF         14 INNER ITERATIONS.
    ------------------------------------------------

 NO OUTPUT CONTROL FOR STRESS PERIOD   12   TIME STEP   23
 
 SOLVING FOR HEAD 
                                                   Max.-Head-Change                         Max.-Flux-Residual
  Residual-Control   Outer-Iter.   Inner-Iter.     Column Row Layer    Maximum-Head-Change  Column Row Layer    Maximum-Flux-Residual          L2-NORM 
          0                 1           2            10   10     1       0.4711232230E-02       2    1    1         0.2346997371E+00      0.1219885260E+01
          0                 2           2            10   10     1       0.2117241392E-02      10   10    1         0.5499021301E-01      0.3216824304E+00
          0                 3           2            10   10     1       0.9514929454E-03      10   10    1         0.2471275525E-01      0.1240777513E+00
          0                 4           2            10   10     1       0.4276023692E-03      10   10    1         0.1110596382E-01      0.5415862823E-01
          0                 5           2            10   10     1       0.1921648571E-03      10   10    1         0.4991035608E-02      0.2416631462E-01
          0                 6           1            10   10     1       0.8635891279E-04      10   10    1         0.2242974900E-02      0.1082035317E-01
          0                 7           1            10   10     1       0.3880964756E-04      10   10    1         0.1007992943E-02      0.4847448222E-02
          0                 8           1            10   10     1       0.1744100714E-04      10   10    1         0.4529913432E-03      0.2171889140E-02
          0                 9           1            10   10     1       0.7837955115E-05      10   10    1         0.2035736915E-03      0.9731721331E-03

    ------------------------------------------------
       NWT REQUIRED            9 OUTER ITERATIONS 
       AND A TOTAL OF         14 INNER ITERATIONS.
    ------------------------------------------------

 NO OUTPUT CONTROL FOR STRESS PERIOD   12   TIME STEP   24
 
 SOLVING FOR HEAD 
                                                   Max.-Head-Change                         Max.-Flux-Residual
  Residual-Control   Outer-Iter.   Inner-Iter.     Column Row Layer    Maximum-Head-Change  Column Row Layer    Maximum-Flux-Residual          L2-NORM 
          0                 1           2            10   10     1       0.4708748371E-02       2    1    1         0.2342528420E+00      0.1217755957E+01
          0                 2           2            10   10     1       0.2116121780E-02      10   10    1         0.5496120511E-01      0.3213314683E+00
          0                 3           2            10   10     1       0.9509882836E-03      10   10    1         0.2469967984E-01      0.1239320724E+00
          0                 4           2            10   10     1       0.4273748985E-03      10   10    1         0.1110007013E-01      0.5409255376E-01
          0                 5           2            10   10     1       0.1920623286E-03      10   10    1         0.4988379098E-02      0.2413664335E-01
          0                 6           1            10   10     1       0.8631270078E-04      10   10    1         0.2241777532E-02      0.1080706662E-01
          0                 7           1            10   10     1       0.3878881881E-04      10   10    1         0.1007453261E-02      0.4841501548E-02
          0                 8           1            10   10     1       0.1743161972E-04      10   10    1         0.4527481043E-03      0.2169226529E-02
          0                 9           1            10   10     1       0.7833724236E-05      10   10    1         0.2034640635E-03      0.9719711808E-03

    ------------------------------------------------
       NWT REQUIRED            9 OUTER ITERATIONS 
       AND A TOTAL OF         14 INNER ITERATIONS.
    ------------------------------------------------

 NO OUTPUT CONTROL FOR STRESS PERIOD   12   TIME STEP   25
 
 SOLVING FOR HEAD 
                                                   Max.-Head-Change                         Max.-Flux-Residual
  Residual-Control   Outer-Iter.   Inner-Iter.     Column Row Layer    Maximum-Head-Change  Column Row Layer    Maximum-Flux-Residual          L2-NORM 
          0                 1           2            10   10     1       0.4706258299E-02       2    1    1         0.2338099748E+00      0.1215726129E+01
          0                 2           2            10   10     1       0.2114999291E-02      10   10    1         0.5493212431E-01      0.3209801699E+00
          0                 3           2            10   10     1       0.9504822902E-03      10   10    1         0.2468657066E-01      0.1237856348E+00
          0                 4           2            10   10     1       0.4271468122E-03      10   10    1         0.1109416083E-01      0.5402637056E-01
          0                 5           2            10   10     1       0.1919595162E-03      10   10    1         0.4985715373E-02      0.2410695204E-01
          0                 6           1            10   10     1       0.8626635770E-04      10   10    1         0.2240576832E-02      0.1079377072E-01
          0                 7           1            10   10     1       0.3876793003E-04      10   10    1         0.1006912044E-02      0.4835549693E-02
          0                 8           1            10   10     1       0.1742220454E-04      10   10    1         0.4525041541E-03      0.2166562405E-02
          0                 9           1            10   10     1       0.7829480352E-05      10   10    1         0.2033541023E-03      0.9707793483E-03

    ------------------------------------------------
       NWT REQUIRED            9 OUTER ITERATIONS 
       AND A TOTAL OF         14 INNER ITERATIONS.
    ------------------------------------------------

 NO OUTPUT CONTROL FOR STRESS PERIOD   12   TIME STEP   26
 
 SOLVING FOR HEAD 
                                                   Max.-Head-Change                         Max.-Flux-Residual
  Residual-Control   Outer-Iter.   Inner-Iter.     Column Row Layer    Maximum-Head-Change  Column Row Layer    Maximum-Flux-Residual          L2-NORM 
          0                 1           2            10   10     1       0.4703762116E-02       2    1    1         0.2333710817E+00      0.1213714556E+01
          0                 2           2            10   10     1       0.2113874187E-02      10   10    1         0.5490297279E-01      0.3206344528E+00
          0                 3           2            10   10     1       0.9499751813E-03      10   10    1         0.2467343125E-01      0.1236416120E+00
          0                 4           2            10   10     1       0.4269182513E-03      10   10    1         0.1108823863E-01      0.5396116103E-01
          0                 5           2            10   10     1       0.1918565022E-03      10   10    1         0.4983046163E-02      0.2407767419E-01
          0                 6           1            10   10     1       0.8621992959E-04      10   10    1         0.2239373807E-02      0.1078065819E-01
          0                 7           1            10   10     1       0.3874700524E-04      10   10    1         0.1006369844E-02      0.4829679440E-02
          0                 8           1            10   10     1       0.1741277411E-04      10   10    1         0.4522597903E-03      0.2163934648E-02
          0                 9           1            10   10     1       0.7825230215E-05      10   10    1         0.2032439736E-03      0.9696021423E-03

    ------------------------------------------------
       NWT REQUIRED            9 OUTER ITERATIONS 
       AND A TOTAL OF         14 INNER ITERATIONS.
    ------------------------------------------------

 NO OUTPUT CONTROL FOR STRESS PERIOD   12   TIME STEP   27
 
 SOLVING FOR HEAD 
                                                   Max.-Head-Change                         Max.-Flux-Residual
  Residual-Control   Outer-Iter.   Inner-Iter.     Column Row Layer    Maximum-Head-Change  Column Row Layer    Maximum-Flux-Residual          L2-NORM 
          0                 1           2            10   10     1       0.4701259916E-02       2    1    1         0.2329349083E+00      0.1211873133E+01
          0                 2           2            10   10     1       0.2112746292E-02      10   10    1         0.5487375062E-01      0.3203075212E+00
          0                 3           2            10   10     1       0.9494667801E-03      10   10    1         0.2466025908E-01      0.1235007570E+00
          0                 4           2            10   10     1       0.4266890918E-03      10   10    1         0.1108230126E-01      0.5389681134E-01
          0                 5           2            10   10     1       0.1917532121E-03      10   10    1         0.4980369939E-02      0.2404866854E-01
          0                 6           1            10   10     1       0.8617337367E-04      10   10    1         0.2238167540E-02      0.1076763122E-01
          0                 7           1            10   10     1       0.3872602193E-04      10   10    1         0.1005826151E-02      0.4823834851E-02
          0                 8           1            10   10     1       0.1740331641E-04      10   10    1         0.4520147337E-03      0.2161313536E-02
          0                 9           1            10   10     1       0.7820967823E-05      10   10    1         0.2031335231E-03      0.9684273477E-03

    ------------------------------------------------
       NWT REQUIRED            9 OUTER ITERATIONS 
       AND A TOTAL OF         14 INNER ITERATIONS.
    ------------------------------------------------

 NO OUTPUT CONTROL FOR STRESS PERIOD   12   TIME STEP   28
 
 SOLVING FOR HEAD 
                                                   Max.-Head-Change                         Max.-Flux-Residual
  Residual-Control   Outer-Iter.   Inner-Iter.     Column Row Layer    Maximum-Head-Change  Column Row Layer    Maximum-Flux-Residual          L2-NORM 
          0                 1           2            10   10     1       0.4698751599E-02       2    1    1         0.2325038198E+00      0.1209890889E+01
          0                 2           2            10   10     1       0.2111615674E-02      10   10    1         0.5484445718E-01      0.3199662710E+00
          0                 3           2            10   10     1       0.9489571651E-03      10   10    1         0.2464705516E-01      0.1233603121E+00
          0                 4           2            10   10     1       0.4264593925E-03      10   10    1         0.1107634975E-01      0.5383319963E-01
          0                 5           2            10   10     1       0.1916496814E-03      10   10    1         0.4977687415E-02      0.2402003118E-01
          0                 6           1            10   10     1       0.8612671070E-04      10   10    1         0.2236958463E-02      0.1075476978E-01
          0                 7           1            10   10     1       0.3870499034E-04      10   10    1         0.1005281199E-02      0.4818069464E-02
          0                 8           1            10   10     1       0.1739383745E-04      10   10    1         0.4517691212E-03      0.2158740131E-02
          0                 9           1            10   10     1       0.7816695676E-05      10   10    1         0.2030228282E-03      0.9672658588E-03

    ------------------------------------------------
       NWT REQUIRED            9 OUTER ITERATIONS 
       AND A TOTAL OF         14 INNER ITERATIONS.
    ------------------------------------------------

 NO OUTPUT CONTROL FOR STRESS PERIOD   12   TIME STEP   29
 
 SOLVING FOR HEAD 
                                                   Max.-Head-Change                         Max.-Flux-Residual
  Residual-Control   Outer-Iter.   Inner-Iter.     Column Row Layer    Maximum-Head-Change  Column Row Layer    Maximum-Flux-Residual          L2-NORM 
          0                 1           2            10   10     1       0.4696237266E-02       2    1    1         0.2320747254E+00      0.1198541420E+01
          0                 2           2            10   10     1       0.2110482376E-02      10   10    1         0.5481509364E-01      0.3184786516E+00
          0                 3           2            10   10     1       0.9484463573E-03      10   10    1         0.2463382003E-01      0.1231227460E+00
          0                 4           2            10   10     1       0.4262291621E-03      10   10    1         0.1107038434E-01      0.5376119844E-01
          0                 5           2            10   10     1       0.1915459141E-03      10   10    1         0.4974998699E-02      0.2399026344E-01
          0                 6           1            10   10     1       0.8607994219E-04      10   10    1         0.2235746634E-02      0.1074161779E-01
          0                 7           1            10   10     1       0.3868391223E-04      10   10    1         0.1004735034E-02      0.4812188486E-02
          0                 8           1            10   10     1       0.1738433823E-04      10   10    1         0.4515229724E-03      0.2156095783E-02
          0                 9           1            10   10     1       0.7812414275E-05      10   10    1         0.2029118896E-03      0.9660894803E-03

    ------------------------------------------------
       NWT REQUIRED            9 OUTER ITERATIONS 
       AND A TOTAL OF         14 INNER ITERATIONS.
    ------------------------------------------------

 NO OUTPUT CONTROL FOR STRESS PERIOD   12   TIME STEP   30



 STREAM LISTING     PERIOD     12   STEP       30

 LAYER ROW COL. STREAM  RCH.  FLOW INTO     FLOW TO   FLOW OUT OF   OVRLND.     DIRECT     STREAM       STREAM     STREAM     STREAM   STREAMBED  STREAMBED
                SEG.NO.  NO.  STRM. RCH.    AQUIFER    STRM. RCH.    RUNOFF     PRECIP       ET          HEAD       DEPTH      WIDTH   CONDCTNC.   GRADIENT

   1    1    1     1     1    3.3000E+00  8.1313E-02   3.2187E+00  0.000E+00  0.000E+00  0.000E+00  1.09370E+03  6.519E-01  4.948E+00  2.227E-02  1.217E+00
   1    2    2     1     2    3.2187E+00  1.2488E-01   3.0938E+00  0.000E+00  0.000E+00  0.000E+00  1.08870E+03  6.446E-01  4.895E+00  3.426E-02  1.215E+00
   1    3    3     1     3    3.0938E+00  1.0547E-01   2.9883E+00  0.000E+00  0.000E+00  0.000E+00  1.08306E+03  6.363E-01  4.834E+00  2.901E-02  1.212E+00
   1    3    4     1     4    2.9883E+00  9.6268E-02   2.8921E+00  0.000E+00  0.000E+00  0.000E+00  1.07804E+03  6.289E-01  4.780E+00  2.653E-02  1.210E+00
   1    4    5     2     1    8.9207E-01  2.4566E-01   6.4640E-01  0.000E+00  0.000E+00  0.000E+00  1.07208E+03  1.495E-01  1.200E+01  7.800E-02  1.050E+00
   1    5    6     2     2    6.4640E-01  1.8736E-01   4.5904E-01  0.000E+00  0.000E+00  0.000E+00  1.06663E+03  1.226E-01  1.200E+01  6.000E-02  1.041E+00
   1    6    6     2     3    4.5904E-01  1.8575E-01   2.7329E-01  0.000E+00  0.000E+00  0.000E+00  1.06189E+03  9.580E-02  1.200E+01  6.000E-02  1.032E+00
   1    7    6     2     4    2.7329E-01  1.8377E-01   8.9523E-02  0.000E+00  0.000E+00  0.000E+00  1.05714E+03  6.285E-02  1.200E+01  6.000E-02  1.021E+00
   1    8    6     2     5    8.9523E-02  8.9523E-02   0.0000E+00  0.000E+00  0.000E+00  0.000E+00  1.05237E+03  9.257E-03  1.200E+01  6.000E-02  1.003E+00
   1    3    5     3     1    2.0000E+00  2.8252E-01   1.7175E+00  0.000E+00  0.000E+00  0.000E+00  1.07555E+03  1.909E+00  9.636E+00  7.227E-02  1.955E+00
   1    3    6     3     2    1.7175E+00  2.4905E-01   1.4684E+00  0.000E+00  0.000E+00  0.000E+00  1.07264E+03  1.727E+00  8.909E+00  6.682E-02  1.864E+00
   1    3    7     3     3    1.4684E+00  1.9718E-01   1.2712E+00  0.000E+00  0.000E+00  0.000E+00  1.06987E+03  1.555E+00  8.218E+00  5.547E-02  1.777E+00
   1    4    8     3     4    1.2712E+00  2.2567E-01   1.0456E+00  0.000E+00  0.000E+00  0.000E+00  1.06682E+03  1.364E+00  7.455E+00  6.709E-02  1.682E+00
   1    5    8     3     5    1.0456E+00  1.5790E-01   8.8768E-01  0.000E+00  0.000E+00  0.000E+00  1.06362E+03  1.164E+00  6.655E+00  4.991E-02  1.582E+00
   1    6    8     3     6    8.8768E-01  5.5980E-02   8.3170E-01  0.000E+00  0.000E+00  0.000E+00  1.06158E+03  1.036E+00  6.145E+00  1.844E-02  1.518E+00
   1    5   10     4     1    1.0000E+01  9.0919E-02   9.9091E+00  0.000E+00  0.000E+00  0.000E+00  1.07836E+03  6.368E-01  1.000E+01  2.500E-02  1.212E+00
   1    5    9     4     2    9.9091E+00  1.8158E-01   9.7275E+00  0.000E+00  0.000E+00  0.000E+00  1.07154E+03  6.315E-01  1.000E+01  5.000E-02  1.211E+00
   1    6    8     4     3    9.7275E+00  1.2689E-01   9.6006E+00  0.000E+00  0.000E+00  0.000E+00  1.06381E+03  6.256E-01  1.000E+01  3.500E-02  1.209E+00
   1    6    8     5     1    1.0432E+01  2.2686E-01   1.0205E+01  0.000E+00  0.000E+00  0.000E+00  1.05868E+03  6.790E-01  1.542E+01  6.166E-02  1.226E+00
   1    7    7     5     2    1.0205E+01  2.7894E-01   9.9265E+00  0.000E+00  0.000E+00  0.000E+00  1.05417E+03  6.732E-01  1.519E+01  7.594E-02  1.224E+00
   1    8    7     5     3    9.9265E+00  1.9221E-01   9.7343E+00  0.000E+00  0.000E+00  0.000E+00  1.04992E+03  6.676E-01  1.497E+01  5.241E-02  1.223E+00
   1    8    6     5     4    9.7343E+00  1.3577E-01   9.5985E+00  0.000E+00  0.000E+00  0.000E+00  1.04691E+03  6.637E-01  1.482E+01  3.706E-02  1.221E+00
   1    9    6     6     1    9.5985E+00  2.2097E-01   9.3776E+00  0.000E+00  0.000E+00  0.000E+00  1.04341E+03  6.828E-01  1.200E+01  6.000E-02  1.228E+00
   1   10    7     6     2    9.3776E+00  2.2039E-01   9.1572E+00  0.000E+00  0.000E+00  0.000E+00  1.03885E+03  6.732E-01  1.200E+01  6.000E-02  1.224E+00
   1   11    7     6     3    9.1572E+00  2.1981E-01   8.9374E+00  0.000E+00  0.000E+00  0.000E+00  1.03430E+03  6.636E-01  1.200E+01  6.000E-02  1.221E+00
   1   12    7     6     4    8.9374E+00  2.1923E-01   8.7181E+00  0.000E+00  0.000E+00  0.000E+00  1.02974E+03  6.539E-01  1.200E+01  6.000E-02  1.218E+00
   1   13    7     6     5    8.7181E+00 -2.0476E-01   8.9229E+00  0.000E+00  0.000E+00  0.000E+00  1.02656E+03  6.535E-01  1.200E+01  2.400E-01 -2.844E-01
   1   14    9     7     1    1.5000E+02  1.1455E+00   1.4885E+02  0.000E+00  0.000E+00  0.000E+00  1.03987E+03  2.288E+00  5.530E+01  5.593E-01  6.827E-01
   1   13    8     7     2    1.4885E+02  1.6106E+00   1.4724E+02  0.000E+00  0.000E+00  0.000E+00  1.03478E+03  2.281E+00  5.526E+01  6.149E-01  8.732E-01
   1   13    7     7     3    1.4724E+02  1.2718E+00   1.4597E+02  0.000E+00  0.000E+00  0.000E+00  1.02969E+03  2.273E+00  5.523E+01  5.586E-01  7.589E-01
   1   13    6     8     1    1.5489E+02  6.5579E-01   1.5424E+02  0.000E+00  0.000E+00  0.000E+00  1.02472E+03  2.849E+00  4.131E+01  4.209E-01  5.193E-01
   1   13    5     8     2    1.5424E+02 -3.6957E-01   1.5461E+02  0.000E+00  0.000E+00  0.000E+00  1.01847E+03  2.848E+00  4.129E+01  4.208E+00 -2.928E-02
   1   13    4     8     3    1.5461E+02 -3.3939E+00   1.5800E+02  0.000E+00  0.000E+00  0.000E+00  1.01224E+03  2.861E+00  4.148E+01  4.227E+00 -2.676E-01
   1   13    3     8     4    1.5800E+02 -4.2855E+00   1.6229E+02  0.000E+00  0.000E+00  0.000E+00  1.00601E+03  2.887E+00  4.186E+01  4.266E+00 -3.349E-01
   1   13    2     8     5    1.6229E+02 -2.8399E+00   1.6513E+02  0.000E+00  0.000E+00  0.000E+00  9.99786E+02  2.911E+00  4.221E+01  4.301E+00 -2.201E-01
   1   13    1     8     6    1.6513E+02 -2.0681E+00   1.6720E+02  0.000E+00  0.000E+00  0.000E+00  9.94802E+02  2.927E+00  4.244E+01  2.595E+00 -2.657E-01
   1    6    8     9     1    0.0000E+00  0.0000E+00   0.0000E+00  0.000E+00  0.000E+00  0.000E+00  1.07850E+03  0.000E+00  4.000E+00  0.000E+00  1.000E+00





UNSATURATED ZONE PACKAGE VOLUMETRIC BUDGET FOR  TIME STEP    30 STRESS PERIOD   12
  ------------------------------------------------------------------------------



     CUMULATIVE VOLUMES      L**3       RATES FOR THIS TIME STEP      L**3/T
     ------------------                 ------------------------

           IN:                                      IN:
           ---                                      ---
        INFILTRATION =    17787597.4070          INFILTRATION =       0.0000E+00

          OUT:                                     OUT:
          ----                                     ----
              UZF ET =   544908199.8558                UZF ET =       0.0000E+00
        UZF RECHARGE =   708672820.1486          UZF RECHARGE =          21.5635

            IN - OUT = -1235793422.5974              IN - OUT =         -21.5635

          STORAGE:                                 STORAGE:
          --------                                 --------
      STORAGE CHANGE = -1235767568.8521        STORAGE CHANGE =         -21.5635

 PERCENT DISCREPANCY IS DIFFERENCE BETWEEN IN-OUT MINUS CHANGE IN STORAGE
 DIVIDED BY THE AVERAGE OF IN AND OUT TIMES 100

 PERCENT DISCREPANCY =          -0.00     PERCENT DISCREPANCY =           0.00






1
  VOLUMETRIC BUDGET FOR ENTIRE MODEL AT END OF TIME STEP   30, STRESS PERIOD  12
  ------------------------------------------------------------------------------

     CUMULATIVE VOLUMES      L**3       RATES FOR THIS TIME STEP      L**3/T
     ------------------                 ------------------------

           IN:                                      IN:
           ---                                      ---
             STORAGE     =    32706364.0000               STORAGE     =       2.5554E-02
       CONSTANT HEAD     =           0.0000         CONSTANT HEAD     =           0.0000
               WELLS     =           0.0000                 WELLS     =           0.0000
     HEAD DEP BOUNDS     =     7987627.0000       HEAD DEP BOUNDS     =           0.2728
      STREAM LEAKAGE     =   328662016.0000        STREAM LEAKAGE     =           9.2656
        UZF RECHARGE     =   708672512.0000          UZF RECHARGE     =          21.5635
               GW ET     =           0.0000                 GW ET     =           0.0000
     SURFACE LEAKAGE     =           0.0000       SURFACE LEAKAGE     =           0.0000
    SUPPLEMENTARY WELLS  =           0.0000      SUPPLEMENTARY WELLS  =           0.0000

                TOTAL IN =  1078028544.0000                  TOTAL IN =          31.1274

          OUT:                                     OUT:
          ----                                     ----
             STORAGE     =   682683904.0000               STORAGE     =          17.6563
       CONSTANT HEAD     =           0.0000         CONSTANT HEAD     =           0.0000
               WELLS     =           0.0000                 WELLS     =           0.0000
     HEAD DEP BOUNDS     =     8344053.5000       HEAD DEP BOUNDS     =           0.2888
      STREAM LEAKAGE     =   302441344.0000        STREAM LEAKAGE     =          13.1618
        UZF RECHARGE     =           0.0000          UZF RECHARGE     =           0.0000
               GW ET     =    84411408.0000                 GW ET     =       1.7500E-02
     SURFACE LEAKAGE     =           0.0000       SURFACE LEAKAGE     =           0.0000
    SUPPLEMENTARY WELLS  =       36673.0352      SUPPLEMENTARY WELLS  =           0.0000

               TOTAL OUT =  1077917440.0000                 TOTAL OUT =          31.1244

                IN - OUT =      111104.0000                  IN - OUT =       3.0346E-03

     PERCENT DISCREPANCY =           0.01         PERCENT DISCREPANCY =           0.01






         TIME SUMMARY AT END OF TIME STEP   30 IN STRESS PERIOD   12
                    SECONDS     MINUTES      HOURS       DAYS        YEARS
                    -----------------------------------------------------------
   TIME STEP LENGTH  87600.      1460.0      24.333      1.0139     2.77588E-03
 STRESS PERIOD TIME 2.62800E+06  43800.      730.00      30.417     8.32763E-02
         TOTAL TIME 2.89944E+07 4.83240E+05  8054.0      335.58     0.91878    
1
1
                            STRESS PERIOD NO.   13, LENGTH =   2628000.    
                            -----------------------------------------------

                              NUMBER OF TIME STEPS =    30

                               MULTIPLIER FOR DELT =     1.000

                            INITIAL TIME STEP SIZE =   87600.00    

 WELL NO.  LAYER   ROW   COL   STRESS RATE         
 --------------------------------------------------
      1      1      6      4       0.000    
      2      1      6      7       0.000    
      3      1      7      4       0.000    
      4      1      7      5       0.000    
      5      1      8      4       0.000    
      6      1      8      5       0.000    
      7      1      9      4       0.000    
      8      1      9      5       0.000    
      9      1     10      4       0.000    
     10      1     10      5       0.000    

     10 WELLS

 REUSING NON-PARAMETER GHB CELLS FROM LAST STRESS PERIOD

      2 GHB CELLS

 REUSING STREAM SEGMENT DATA FROM LAST STRESS PERIOD



            AREAL INFILTRATION RATE
 READING ON UNIT   19 WITH FORMAT: (10F4.0)            

            1           2           3           4           5           6           7           8           9          10
 ........................................................................................................................
   1    0.000       0.000       0.000       0.000       0.000       0.000       0.000       0.000       0.000       0.000    
   2    0.000       0.000       0.000       0.000       0.000       0.000       0.000       0.000       0.000       0.000    
   3    0.000       0.000       0.000       0.000       0.000       0.000       0.000       0.000       0.000       0.000    
   4    0.000       0.000       0.000       0.000       0.000       0.000       0.000       0.000       0.000       0.000    
   5    0.000       0.000       0.000       0.000       0.000       0.000       0.000       0.000       0.000       0.000    
   6    0.000       0.000       0.000       0.000       0.000       0.000       0.000       0.000       0.000       0.000    
   7    0.000       0.000       0.000       0.000       0.000       0.000       0.000       0.000       0.000       0.000    
   8    0.000       0.000       0.000       0.000       0.000       0.000       0.000       0.000       0.000       0.000    
   9    0.000       0.000       0.000       0.000       0.000       0.000       0.000       0.000       0.000       0.000    
  10    0.000       0.000       0.000       0.000       0.000       0.000       0.000       0.000       0.000       0.000    
  11    0.000       0.000       0.000       0.000       0.000       0.000       0.000       0.000       0.000       0.000    
  12    0.000       0.000       0.000       0.000       0.000       0.000       0.000       0.000       0.000       0.000    
  13    0.000       0.000       0.000       0.000       0.000       0.000       0.000       0.000       0.000       0.000    
  14    0.000       0.000       0.000       0.000       0.000       0.000       0.000       0.000       0.000       0.000    
  15    0.000       0.000       0.000       0.000       0.000       0.000       0.000       0.000       0.000       0.000    

                  ET RATE =  1.000000E-10

 USING ET EXTINCTION DEPTH FROM PREVIOUS STRESS PERIOD. CURRENT PERIOD IS:      13

 USING EXTINCTION WATER CONTENT FROM PREVIOUS STRESS PERIOD. CURRENT PERIOD IS:      13

 PROCESSING AGO STRESS PERIOD DATA

 READING AGO STRESS PERIOD DATA

 READING IRRIGATION STREAM

 READING IRRIGATION WELL

 READING SUPPLEMENTAL WEL

 END PROCESSING AGO STRESS PERIOD DATA OPTIONS
 
 SOLVING FOR HEAD 
                                                   Max.-Head-Change                         Max.-Flux-Residual
  Residual-Control   Outer-Iter.   Inner-Iter.     Column Row Layer    Maximum-Head-Change  Column Row Layer    Maximum-Flux-Residual          L2-NORM 
          0                 1           2            10   10     1       0.4693607926E-02       2    1    1         0.2316418104E+00      0.1196079190E+01
          0                 2           2            10   10     1       0.2109297467E-02      10   10    1         0.5478438807E-01      0.3180709984E+00
          0                 3           2            10   10     1       0.9479123882E-03      10   10    1         0.2461998264E-01      0.1229650722E+00
          0                 4           2            10   10     1       0.4259885372E-03      10   10    1         0.1106414865E-01      0.5369078974E-01
          0                 5           2            10   10     1       0.1914374819E-03      10   10    1         0.4972188696E-02      0.2395868736E-01
          0                 6           1            10   10     1       0.8603108099E-04      10   10    1         0.2234480378E-02      0.1072746770E-01
          0                 7           1            10   10     1       0.3866189446E-04      10   10    1         0.1004164428E-02      0.4805849420E-02
          0                 8           1            10   10     1       0.1737441658E-04      10   10    1         0.4512658497E-03      0.2153256287E-02
          0                 9           1            10   10     1       0.7807943790E-05      10   10    1         0.2027960327E-03      0.9648175519E-03

    ------------------------------------------------
       NWT REQUIRED            9 OUTER ITERATIONS 
       AND A TOTAL OF         14 INNER ITERATIONS.
    ------------------------------------------------

 NO OUTPUT CONTROL FOR STRESS PERIOD   13   TIME STEP    1
 
 SOLVING FOR HEAD 
                                                   Max.-Head-Change                         Max.-Flux-Residual
  Residual-Control   Outer-Iter.   Inner-Iter.     Column Row Layer    Maximum-Head-Change  Column Row Layer    Maximum-Flux-Residual          L2-NORM 
          0                 1           2            10   10     1       0.4691082276E-02       2    1    1         0.2312139207E+00      0.1194101427E+01
          0                 2           2            10   10     1       0.2108159130E-02      10   10    1         0.5475489264E-01      0.3177057554E+00
          0                 3           2            10   10     1       0.9473993369E-03      10   10    1         0.2460668879E-01      0.1228161696E+00
          0                 4           2            10   10     1       0.4257573078E-03      10   10    1         0.1105815710E-01      0.5362388738E-01
          0                 5           2            10   10     1       0.1913332699E-03      10   10    1         0.4969488347E-02      0.2392870082E-01
          0                 6           1            10   10     1       0.8598411489E-04      10   10    1         0.2233263372E-02      0.1071404791E-01
          0                 7           1            10   10     1       0.3864072831E-04      10   10    1         0.1003615952E-02      0.4799845759E-02
          0                 8           1            10   10     1       0.1736487784E-04      10   10    1         0.4510186683E-03      0.2150570213E-02
          0                 9           1            10   10     1       0.7803645132E-05      10   10    1         0.2026846367E-03      0.9637128806E-03

    ------------------------------------------------
       NWT REQUIRED            9 OUTER ITERATIONS 
       AND A TOTAL OF         14 INNER ITERATIONS.
    ------------------------------------------------

 NO OUTPUT CONTROL FOR STRESS PERIOD   13   TIME STEP    2
 
 SOLVING FOR HEAD 
                                                   Max.-Head-Change                         Max.-Flux-Residual
  Residual-Control   Outer-Iter.   Inner-Iter.     Column Row Layer    Maximum-Head-Change  Column Row Layer    Maximum-Flux-Residual          L2-NORM 
          0                 1           2            10   10     1       0.4688550905E-02       2    1    1         0.2307885955E+00      0.1192161463E+01
          0                 2           2            10   10     1       0.2107018247E-02      10   10    1         0.5472533057E-01      0.3173586941E+00
          0                 3           2            10   10     1       0.9468851526E-03      10   10    1         0.2459336527E-01      0.1226750111E+00
          0                 4           2            10   10     1       0.4255255742E-03      10   10    1         0.1105215234E-01      0.5356021539E-01
          0                 5           2            10   10     1       0.1912288335E-03      10   10    1         0.4966782119E-02      0.2390007965E-01
          0                 6           1            10   10     1       0.8593704900E-04      10   10    1         0.2232043750E-02      0.1070120989E-01
          0                 7           1            10   10     1       0.3861951764E-04      10   10    1         0.1003066312E-02      0.4794091202E-02
          0                 8           1            10   10     1       0.1735531935E-04      10   10    1         0.4507709686E-03      0.2147991555E-02
          0                 9           1            10   10     1       0.7799337469E-05      10   10    1         0.2025730077E-03      0.9624604623E-03

    ------------------------------------------------
       NWT REQUIRED            9 OUTER ITERATIONS 
       AND A TOTAL OF         14 INNER ITERATIONS.
    ------------------------------------------------

 NO OUTPUT CONTROL FOR STRESS PERIOD   13   TIME STEP    3
 
 SOLVING FOR HEAD 
                                                   Max.-Head-Change                         Max.-Flux-Residual
  Residual-Control   Outer-Iter.   Inner-Iter.     Column Row Layer    Maximum-Head-Change  Column Row Layer    Maximum-Flux-Residual          L2-NORM 
          0                 1           2            10   10     1       0.4686013716E-02       2    1    1         0.2303669926E+00      0.1190326055E+01
          0                 2           2            10   10     1       0.2105874664E-02      10   10    1         0.5469570018E-01      0.3170151794E+00
          0                 3           2            10   10     1       0.9463697173E-03      10   10    1         0.2458001007E-01      0.1225358286E+00
          0                 4           2            10   10     1       0.4252932620E-03      10   10    1         0.1104613292E-01      0.5349764702E-01
          0                 5           2            10   10     1       0.1911241298E-03      10   10    1         0.4964069104E-02      0.2387193979E-01
          0                 6           1            10   10     1       0.8588985955E-04      10   10    1         0.2230820989E-02      0.1068856766E-01
          0                 7           1            10   10     1       0.3859825020E-04      10   10    1         0.1002515223E-02      0.4788414205E-02
          0                 8           1            10   10     1       0.1734573459E-04      10   10    1         0.4505225978E-03      0.2145443334E-02
          0                 9           1            10   10     1       0.7795017802E-05      10   10    1         0.2024610686E-03      0.9613165116E-03

    ------------------------------------------------
       NWT REQUIRED            9 OUTER ITERATIONS 
       AND A TOTAL OF         14 INNER ITERATIONS.
    ------------------------------------------------

 NO OUTPUT CONTROL FOR STRESS PERIOD   13   TIME STEP    4
 
 SOLVING FOR HEAD 
                                                   Max.-Head-Change                         Max.-Flux-Residual
  Residual-Control   Outer-Iter.   Inner-Iter.     Column Row Layer    Maximum-Head-Change  Column Row Layer    Maximum-Flux-Residual          L2-NORM 
          0                 1           2            10   10     1       0.4683361676E-02       2    1    1         0.2299490736E+00      0.1188410378E+01
          0                 2           2            10   10     1       0.2104679651E-02      10   10    1         0.5466473011E-01      0.3166501464E+00
          0                 3           2            10   10     1       0.9458312520E-03      10   10    1         0.2456605496E-01      0.1223902936E+00
          0                 4           2            10   10     1       0.4250506363E-03      10   10    1         0.1103984484E-01      0.5343295636E-01
          0                 5           2            10   10     1       0.1910148078E-03      10   10    1         0.4961235792E-02      0.2384304949E-01
          0                 6           1            10   10     1       0.8584060218E-04      10   10    1         0.2229544358E-02      0.1067565535E-01
          0                 7           1            10   10     1       0.3857605635E-04      10   10    1         0.1001940007E-02      0.4782640440E-02
          0                 8           1            10   10     1       0.1733573465E-04      10   10    1         0.4502634267E-03      0.2142859002E-02
          0                 9           1            10   10     1       0.7790512551E-05      10   10    1         0.2023443050E-03      0.9601599355E-03

    ------------------------------------------------
       NWT REQUIRED            9 OUTER ITERATIONS 
       AND A TOTAL OF         14 INNER ITERATIONS.
    ------------------------------------------------

 NO OUTPUT CONTROL FOR STRESS PERIOD   13   TIME STEP    5
 
 SOLVING FOR HEAD 
                                                   Max.-Head-Change                         Max.-Flux-Residual
  Residual-Control   Outer-Iter.   Inner-Iter.     Column Row Layer    Maximum-Head-Change  Column Row Layer    Maximum-Flux-Residual          L2-NORM 
          0                 1           2            10   10     1       0.4680813774E-02       2    1    1         0.2295347892E+00      0.1186269458E+01
          0                 2           2            10   10     1       0.2103531412E-02      10   10    1         0.5463497542E-01      0.3162662528E+00
          0                 3           2            10   10     1       0.9453137947E-03      10   10    1         0.2455264573E-01      0.1222465978E+00
          0                 4           2            10   10     1       0.4248174465E-03      10   10    1         0.1103380195E-01      0.5336955523E-01
          0                 5           2            10   10     1       0.1909097234E-03      10   10    1         0.4958512596E-02      0.2381468172E-01
          0                 6           1            10   10     1       0.8579324765E-04      10   10    1         0.2228317189E-02      0.1066294960E-01
          0                 7           1            10   10     1       0.3855471737E-04      10   10    1         0.1001387014E-02      0.4776948746E-02
          0                 8           1            10   10     1       0.1732611938E-04      10   10    1         0.4500142416E-03      0.2140311404E-02
          0                 9           1            10   10     1       0.7786179878E-05      10   10    1         0.2022320167E-03      0.9590207713E-03

    ------------------------------------------------
       NWT REQUIRED            9 OUTER ITERATIONS 
       AND A TOTAL OF         14 INNER ITERATIONS.
    ------------------------------------------------

 NO OUTPUT CONTROL FOR STRESS PERIOD   13   TIME STEP    6
 
 SOLVING FOR HEAD 
                                                   Max.-Head-Change                         Max.-Flux-Residual
  Residual-Control   Outer-Iter.   Inner-Iter.     Column Row Layer    Maximum-Head-Change  Column Row Layer    Maximum-Flux-Residual          L2-NORM 
          0                 1           2            10   10     1       0.4678260353E-02       2    1    1         0.2291240877E+00      0.1183425641E+01
          0                 2           2            10   10     1       0.2102380609E-02      10   10    1         0.5460515592E-01      0.3157806652E+00
          0                 3           2            10   10     1       0.9447951472E-03      10   10    1         0.2453920639E-01      0.1220936173E+00
          0                 4           2            10   10     1       0.4245837053E-03      10   10    1         0.1102774509E-01      0.5330520680E-01
          0                 5           2            10   10     1       0.1908043843E-03      10   10    1         0.4955782935E-02      0.2378613425E-01
          0                 6           1            10   10     1       0.8574577583E-04      10   10    1         0.2227087023E-02      0.1065018382E-01
          0                 7           1            10   10     1       0.3853332413E-04      10   10    1         0.1000832629E-02      0.4771233802E-02
          0                 8           1            10   10     1       0.1731647835E-04      10   10    1         0.4497644046E-03      0.2137751861E-02
          0                 9           1            10   10     1       0.7781835449E-05      10   10    1         0.2021194320E-03      0.9578730737E-03

    ------------------------------------------------
       NWT REQUIRED            9 OUTER ITERATIONS 
       AND A TOTAL OF         14 INNER ITERATIONS.
    ------------------------------------------------

 NO OUTPUT CONTROL FOR STRESS PERIOD   13   TIME STEP    7
 
 SOLVING FOR HEAD 
                                                   Max.-Head-Change                         Max.-Flux-Residual
  Residual-Control   Outer-Iter.   Inner-Iter.     Column Row Layer    Maximum-Head-Change  Column Row Layer    Maximum-Flux-Residual          L2-NORM 
          0                 1           2            10   10     1       0.4675592148E-02       2    1    1         0.2287157232E+00      0.1181564378E+01
          0                 2           2            10   10     1       0.2101178296E-02      10   10    1         0.5457399699E-01      0.3154294121E+00
          0                 3           2            10   10     1       0.9442533849E-03      10   10    1         0.2452516600E-01      0.1219520665E+00
          0                 4           2            10   10     1       0.4243395916E-03      10   10    1         0.1102141852E-01      0.5324177201E-01
          0                 5           2            10   10     1       0.1906943903E-03      10   10    1         0.4952932236E-02      0.2375768460E-01
          0                 6           1            10   10     1       0.8569621482E-04      10   10    1         0.2225802547E-02      0.1063743783E-01
          0                 7           1            10   10     1       0.3851099371E-04      10   10    1         0.1000253876E-02      0.4765525264E-02
          0                 8           1            10   10     1       0.1730641714E-04      10   10    1         0.4495036344E-03      0.2135195631E-02
          0                 9           1            10   10     1       0.7777301936E-05      10   10    1         0.2020019344E-03      0.9567310031E-03

    ------------------------------------------------
       NWT REQUIRED            9 OUTER ITERATIONS 
       AND A TOTAL OF         14 INNER ITERATIONS.
    ------------------------------------------------

 NO OUTPUT CONTROL FOR STRESS PERIOD   13   TIME STEP    8
 
 SOLVING FOR HEAD 
                                                   Max.-Head-Change                         Max.-Flux-Residual
  Residual-Control   Outer-Iter.   Inner-Iter.     Column Row Layer    Maximum-Head-Change  Column Row Layer    Maximum-Flux-Residual          L2-NORM 
          0                 1           2            10   10     1       0.4673028022E-02       2    1    1         0.2283120763E+00      0.1180099737E+01
          0                 2           2            10   10     1       0.2100022732E-02      10   10    1         0.5454405278E-01      0.3151224938E+00
          0                 3           2            10   10     1       0.9437326217E-03      10   10    1         0.2451167121E-01      0.1218183713E+00
          0                 4           2            10   10     1       0.4241049097E-03      10   10    1         0.1101533701E-01      0.5318084974E-01
          0                 5           2            10   10     1       0.1905886328E-03      10   10    1         0.4950191618E-02      0.2373018073E-01
          0                 6           1            10   10     1       0.8564855716E-04      10   10    1         0.2224567516E-02      0.1062505897E-01
          0                 7           1            10   10     1       0.3848951793E-04      10   10    1         0.9996973325E-03      0.4759960441E-02
          0                 8           1            10   10     1       0.1729673984E-04      10   10    1         0.4492528451E-03      0.2132695317E-02
          0                 9           1            10   10     1       0.7772941500E-05      10   10    1         0.2018889276E-03      0.9556058683E-03

    ------------------------------------------------
       NWT REQUIRED            9 OUTER ITERATIONS 
       AND A TOTAL OF         14 INNER ITERATIONS.
    ------------------------------------------------

 NO OUTPUT CONTROL FOR STRESS PERIOD   13   TIME STEP    9
 
 SOLVING FOR HEAD 
                                                   Max.-Head-Change                         Max.-Flux-Residual
  Residual-Control   Outer-Iter.   Inner-Iter.     Column Row Layer    Maximum-Head-Change  Column Row Layer    Maximum-Flux-Residual          L2-NORM 
          0                 1           2            10   10     1       0.4670349296E-02       2    1    1         0.2279118855E+00      0.1178591102E+01
          0                 2           2            10   10     1       0.2098815742E-02      10   10    1         0.5451277130E-01      0.3147960367E+00
          0                 3           2            10   10     1       0.9431887808E-03      10   10    1         0.2449757633E-01      0.1216790582E+00
          0                 4           2            10   10     1       0.4238598722E-03      10   10    1         0.1100898621E-01      0.5311798604E-01
          0                 5           2            10   10     1       0.1904782283E-03      10   10    1         0.4947330148E-02      0.2370194400E-01
          0                 6           1            10   10     1       0.8559881383E-04      10   10    1         0.2223278251E-02      0.1061239601E-01
          0                 7           1            10   10     1       0.3846710598E-04      10   10    1         0.9991164468E-03      0.4754285694E-02
          0                 8           1            10   10     1       0.1728664236E-04      10   10    1         0.4489911308E-03      0.2130154475E-02
          0                 9           1            10   10     1       0.7768392231E-05      10   10    1         0.2017710163E-03      0.9544659355E-03

    ------------------------------------------------
       NWT REQUIRED            9 OUTER ITERATIONS 
       AND A TOTAL OF         14 INNER ITERATIONS.
    ------------------------------------------------

 NO OUTPUT CONTROL FOR STRESS PERIOD   13   TIME STEP   10
 
 SOLVING FOR HEAD 
                                                   Max.-Head-Change                         Max.-Flux-Residual
  Residual-Control   Outer-Iter.   Inner-Iter.     Column Row Layer    Maximum-Head-Change  Column Row Layer    Maximum-Flux-Residual          L2-NORM 
          0                 1           2            10   10     1       0.4667774879E-02       2    1    1         0.2275139067E+00      0.1177197165E+01
          0                 2           2            10   10     1       0.2097655604E-02      10   10    1         0.5448270720E-01      0.3144852282E+00
          0                 3           2            10   10     1       0.9426659837E-03      10   10    1         0.2448402825E-01      0.1215422024E+00
          0                 4           2            10   10     1       0.4236242863E-03      10   10    1         0.1100288101E-01      0.5305588984E-01
          0                 5           2            10   10     1       0.1903720691E-03      10   10    1         0.4944579008E-02      0.2367405129E-01
          0                 6           1            10   10     1       0.8555097759E-04      10   10    1         0.2222038544E-02      0.1059989652E-01
          0                 7           1            10   10     1       0.3844555091E-04      10   10    1         0.9985578263E-03      0.4748685590E-02
          0                 8           1            10   10     1       0.1727692979E-04      10   10    1         0.4487394159E-03      0.2127644186E-02
          0                 9           1            10   10     1       0.7764015787E-05      10   10    1         0.2016575943E-03      0.9533433671E-03

    ------------------------------------------------
       NWT REQUIRED            9 OUTER ITERATIONS 
       AND A TOTAL OF         14 INNER ITERATIONS.
    ------------------------------------------------

 NO OUTPUT CONTROL FOR STRESS PERIOD   13   TIME STEP   11
 
 SOLVING FOR HEAD 
                                                   Max.-Head-Change                         Max.-Flux-Residual
  Residual-Control   Outer-Iter.   Inner-Iter.     Column Row Layer    Maximum-Head-Change  Column Row Layer    Maximum-Flux-Residual          L2-NORM 
          0                 1           2            10   10     1       0.4665086041E-02       2    1    1         0.2271205162E+00      0.1175865851E+01
          0                 2           2            10   10     1       0.2096444120E-02      10   10    1         0.5445130793E-01      0.3141293102E+00
          0                 3           2            10   10     1       0.9421201456E-03      10   10    1         0.2446988102E-01      0.1213777389E+00
          0                 4           2            10   10     1       0.4233783611E-03      10   10    1         0.1099650695E-01      0.5298111398E-01
          0                 5           2            10   10     1       0.1902612702E-03      10   10    1         0.4941707199E-02      0.2364054249E-01
          0                 6           1            10   10     1       0.8550105918E-04      10   10    1         0.2220744681E-02      0.1058491669E-01
          0                 7           1            10   10     1       0.3842306117E-04      10   10    1         0.9979748968E-03      0.4741989698E-02
          0                 8           1            10   10     1       0.1726679780E-04      10   10    1         0.4484767912E-03      0.2124650007E-02
          0                 9           1            10   10     1       0.7759451261E-05      10   10    1         0.2015392755E-03      0.9520031886E-03

    ------------------------------------------------
       NWT REQUIRED            9 OUTER ITERATIONS 
       AND A TOTAL OF         14 INNER ITERATIONS.
    ------------------------------------------------

 NO OUTPUT CONTROL FOR STRESS PERIOD   13   TIME STEP   12
 
 SOLVING FOR HEAD 
                                                   Max.-Head-Change                         Max.-Flux-Residual
  Residual-Control   Outer-Iter.   Inner-Iter.     Column Row Layer    Maximum-Head-Change  Column Row Layer    Maximum-Flux-Residual          L2-NORM 
          0                 1           2            10   10     1       0.4662392508E-02       2    1    1         0.2267292551E+00      0.1174599761E+01
          0                 2           2            10   10     1       0.2095230550E-02      10   10    1         0.5441985396E-01      0.3138057394E+00
          0                 3           2            10   10     1       0.9415733811E-03      10   10    1         0.2445570950E-01      0.1212305898E+00
          0                 4           2            10   10     1       0.4231320245E-03      10   10    1         0.1099012210E-01      0.5291451122E-01
          0                 5           2            10   10     1       0.1901502884E-03      10   10    1         0.4938830609E-02      0.2361075678E-01
          0                 6           1            10   10     1       0.8545105948E-04      10   10    1         0.2219448704E-02      0.1057161295E-01
          0                 7           1            10   10     1       0.3840053592E-04      10   10    1         0.9973910388E-03      0.4736044570E-02
          0                 8           1            10   10     1       0.1725665004E-04      10   10    1         0.4482137559E-03      0.2121992194E-02
          0                 9           1            10   10     1       0.7754879481E-05      10   10    1         0.2014207754E-03      0.9508144295E-03

    ------------------------------------------------
       NWT REQUIRED            9 OUTER ITERATIONS 
       AND A TOTAL OF         14 INNER ITERATIONS.
    ------------------------------------------------

 NO OUTPUT CONTROL FOR STRESS PERIOD   13   TIME STEP   13
 
 SOLVING FOR HEAD 
                                                   Max.-Head-Change                         Max.-Flux-Residual
  Residual-Control   Outer-Iter.   Inner-Iter.     Column Row Layer    Maximum-Head-Change  Column Row Layer    Maximum-Flux-Residual          L2-NORM 
          0                 1           2            10   10     1       0.4659803617E-02       2    1    1         0.2263412930E+00      0.1173347743E+01
          0                 2           2            10   10     1       0.2094063982E-02      10   10    1         0.5438962128E-01      0.3135055905E+00
          0                 3           2            10   10     1       0.9410477287E-03      10   10    1         0.2444208653E-01      0.1210966148E+00
          0                 4           2            10   10     1       0.4228951708E-03      10   10    1         0.1098398364E-01      0.5285341111E-01
          0                 5           2            10   10     1       0.1900435666E-03      10   10    1         0.4936064693E-02      0.2358324787E-01
          0                 6           1            10   10     1       0.8540297338E-04      10   10    1         0.2218202436E-02      0.1055926453E-01
          0                 7           1            10   10     1       0.3837886980E-04      10   10    1         0.9968295030E-03      0.4730506400E-02
          0                 8           1            10   10     1       0.1724688821E-04      10   10    1         0.4479607494E-03      0.2119508585E-02
          0                 9           1            10   10     1       0.7750481278E-05      10   10    1         0.2013067820E-03      0.9497013148E-03

    ------------------------------------------------
       NWT REQUIRED            9 OUTER ITERATIONS 
       AND A TOTAL OF         14 INNER ITERATIONS.
    ------------------------------------------------

 NO OUTPUT CONTROL FOR STRESS PERIOD   13   TIME STEP   14
 
 SOLVING FOR HEAD 
                                                   Max.-Head-Change                         Max.-Flux-Residual
  Residual-Control   Outer-Iter.   Inner-Iter.     Column Row Layer    Maximum-Head-Change  Column Row Layer    Maximum-Flux-Residual          L2-NORM 
          0                 1           2            10   10     1       0.4657100377E-02       2    1    1         0.2259565895E+00      0.1171921057E+01
          0                 2           2            10   10     1       0.2092845992E-02      10   10    1         0.5435805374E-01      0.3131892677E+00
          0                 3           2            10   10     1       0.9404989523E-03      10   10    1         0.2442786330E-01      0.1209633837E+00
          0                 4           2            10   10     1       0.4226479186E-03      10   10    1         0.1097757525E-01      0.5279316988E-01
          0                 5           2            10   10     1       0.1899321686E-03      10   10    1         0.4933177392E-02      0.2355609385E-01
          0                 6           1            10   10     1       0.8535278460E-04      10   10    1         0.2216901584E-02      0.1054704954E-01
          0                 7           1            10   10     1       0.3835625826E-04      10   10    1         0.9962434200E-03      0.4725016401E-02
          0                 8           1            10   10     1       0.1723670093E-04      10   10    1         0.4476966981E-03      0.2117043114E-02
          0                 9           1            10   10     1       0.7745891991E-05      10   10    1         0.2011878255E-03      0.9485943945E-03

    ------------------------------------------------
       NWT REQUIRED            9 OUTER ITERATIONS 
       AND A TOTAL OF         14 INNER ITERATIONS.
    ------------------------------------------------

 NO OUTPUT CONTROL FOR STRESS PERIOD   13   TIME STEP   15
 
 SOLVING FOR HEAD 
                                                   Max.-Head-Change                         Max.-Flux-Residual
  Residual-Control   Outer-Iter.   Inner-Iter.     Column Row Layer    Maximum-Head-Change  Column Row Layer    Maximum-Flux-Residual          L2-NORM 
          0                 1           2            10   10     1       0.4654392550E-02       2    1    1         0.2255763196E+00      0.1170698636E+01
          0                 2           2            10   10     1       0.2091626075E-02      10   10    1         0.5432643330E-01      0.3128887789E+00
          0                 3           2            10   10     1       0.9399493691E-03      10   10    1         0.2441361784E-01      0.1208277206E+00
          0                 4           2            10   10     1       0.4224003304E-03      10   10    1         0.1097115757E-01      0.5273147508E-01
          0                 5           2            10   10     1       0.1898206316E-03      10   10    1         0.4930286227E-02      0.2352837280E-01
          0                 6           1            10   10     1       0.8530253829E-04      10   10    1         0.2215599130E-02      0.1053462552E-01
          0                 7           1            10   10     1       0.3833362321E-04      10   10    1         0.9956566831E-03      0.4719450989E-02
          0                 8           1            10   10     1       0.1722650466E-04      10   10    1         0.4474323861E-03      0.2114550616E-02
          0                 9           1            10   10     1       0.7741298702E-05      10   10    1         0.2010687545E-03      0.9474775209E-03

    ------------------------------------------------
       NWT REQUIRED            9 OUTER ITERATIONS 
       AND A TOTAL OF         14 INNER ITERATIONS.
    ------------------------------------------------

 NO OUTPUT CONTROL FOR STRESS PERIOD   13   TIME STEP   16
 
 SOLVING FOR HEAD 
                                                   Max.-Head-Change                         Max.-Flux-Residual
  Residual-Control   Outer-Iter.   Inner-Iter.     Column Row Layer    Maximum-Head-Change  Column Row Layer    Maximum-Flux-Residual          L2-NORM 
          0                 1           2            10   10     1       0.4651680231E-02       2    1    1         0.2251980257E+00      0.1169591797E+01
          0                 2           2            10   10     1       0.2090404055E-02      10   10    1         0.5429476003E-01      0.3125999187E+00
          0                 3           2            10   10     1       0.9393988039E-03      10   10    1         0.2439934767E-01      0.1206943098E+00
          0                 4           2            10   10     1       0.4221522845E-03      10   10    1         0.1096472835E-01      0.5267059422E-01
          0                 5           2            10   10     1       0.1897088812E-03      10   10    1         0.4927389675E-02      0.2350100151E-01
          0                 6           1            10   10     1       0.8525219294E-04      10   10    1         0.2214294171E-02      0.1052235581E-01
          0                 7           1            10   10     1       0.3831094214E-04      10   10    1         0.9950687798E-03      0.4713953748E-02
          0                 8           1            10   10     1       0.1721628687E-04      10   10    1         0.4471675341E-03      0.2112087423E-02
          0                 9           1            10   10     1       0.7736695658E-05      10   10    1         0.2009494423E-03      0.9463743412E-03

    ------------------------------------------------
       NWT REQUIRED            9 OUTER ITERATIONS 
       AND A TOTAL OF         14 INNER ITERATIONS.
    ------------------------------------------------

 NO OUTPUT CONTROL FOR STRESS PERIOD   13   TIME STEP   17
 
 SOLVING FOR HEAD 
                                                   Max.-Head-Change                         Max.-Flux-Residual
  Residual-Control   Outer-Iter.   Inner-Iter.     Column Row Layer    Maximum-Head-Change  Column Row Layer    Maximum-Flux-Residual          L2-NORM 
          0                 1           2            10   10     1       0.4648963525E-02       2    1    1         0.2248228731E+00      0.1168597138E+01
          0                 2           2            10   10     1       0.2089180197E-02      10   10    1         0.5426303618E-01      0.3123237141E+00
          0                 3           2            10   10     1       0.9388474723E-03      10   10    1         0.2438505634E-01      0.1205625815E+00
          0                 4           2            10   10     1       0.4219039213E-03      10   10    1         0.1095829032E-01      0.5261018762E-01
          0                 5           2            10   10     1       0.1895970000E-03      10   10    1         0.4924489481E-02      0.2347382076E-01
          0                 6           1            10   10     1       0.8520179431E-04      10   10    1         0.2212987715E-02      0.1051016816E-01
          0                 7           1            10   10     1       0.3828823981E-04      10   10    1         0.9944802680E-03      0.4708497897E-02
          0                 8           1            10   10     1       0.1720606033E-04      10   10    1         0.4469024288E-03      0.2109657290E-02
          0                 9           1            10   10     1       0.7732089113E-05      10   10    1         0.2008300211E-03      0.9453152220E-03

    ------------------------------------------------
       NWT REQUIRED            9 OUTER ITERATIONS 
       AND A TOTAL OF         14 INNER ITERATIONS.
    ------------------------------------------------

 NO OUTPUT CONTROL FOR STRESS PERIOD   13   TIME STEP   18
 
 SOLVING FOR HEAD 
                                                   Max.-Head-Change                         Max.-Flux-Residual
  Residual-Control   Outer-Iter.   Inner-Iter.     Column Row Layer    Maximum-Head-Change  Column Row Layer    Maximum-Flux-Residual          L2-NORM 
          0                 1           2            10   10     1       0.4646351824E-02       2    1    1         0.2244508414E+00      0.1167474114E+01
          0                 2           2            10   10     1       0.2088003395E-02      10   10    1         0.5423253733E-01      0.3120271019E+00
          0                 3           2            10   10     1       0.9383172284E-03      10   10    1         0.2437131395E-01      0.1204288927E+00
          0                 4           2            10   10     1       0.4216650074E-03      10   10    1         0.1095209828E-01      0.5254959161E-01
          0                 5           2            10   10     1       0.1894893540E-03      10   10    1         0.4921699528E-02      0.2344660577E-01
          0                 6           1            10   10     1       0.8515329353E-04      10   10    1         0.2211730664E-02      0.1049796827E-01
          0                 7           1            10   10     1       0.3826638761E-04      10   10    1         0.9939138961E-03      0.4703025326E-02
          0                 8           1            10   10     1       0.1719621496E-04      10   10    1         0.4466472534E-03      0.2107190935E-02
          0                 9           1            10   10     1       0.7727653393E-05      10   10    1         0.2007150593E-03      0.9441810249E-03

    ------------------------------------------------
       NWT REQUIRED            9 OUTER ITERATIONS 
       AND A TOTAL OF         14 INNER ITERATIONS.
    ------------------------------------------------

 NO OUTPUT CONTROL FOR STRESS PERIOD   13   TIME STEP   19
 
 SOLVING FOR HEAD 
                                                   Max.-Head-Change                         Max.-Flux-Residual
  Residual-Control   Outer-Iter.   Inner-Iter.     Column Row Layer    Maximum-Head-Change  Column Row Layer    Maximum-Flux-Residual          L2-NORM 
          0                 1           2            10   10     1       0.4643626023E-02       2    1    1         0.2240818836E+00      0.1166204016E+01
          0                 2           2            10   10     1       0.2086775393E-02      10   10    1         0.5420070707E-01      0.3117126728E+00
          0                 3           2            10   10     1       0.9377640093E-03      10   10    1         0.2435697412E-01      0.1202941967E+00
          0                 4           2            10   10     1       0.4214157843E-03      10   10    1         0.1094563816E-01      0.5248896614E-01
          0                 5           2            10   10     1       0.1893770819E-03      10   10    1         0.4918789276E-02      0.2341938447E-01
          0                 6           1            10   10     1       0.8510271682E-04      10   10    1         0.2210419629E-02      0.1048576514E-01
          0                 7           1            10   10     1       0.3824360400E-04      10   10    1         0.9933232995E-03      0.4697557189E-02
          0                 8           1            10   10     1       0.1718595190E-04      10   10    1         0.4463812075E-03      0.2104740632E-02
          0                 9           1            10   10     1       0.7723030591E-05      10   10    1         0.2005952115E-03      0.9431598721E-03

    ------------------------------------------------
       NWT REQUIRED            9 OUTER ITERATIONS 
       AND A TOTAL OF         14 INNER ITERATIONS.
    ------------------------------------------------

 NO OUTPUT CONTROL FOR STRESS PERIOD   13   TIME STEP   20
 
 SOLVING FOR HEAD 
                                                   Max.-Head-Change                         Max.-Flux-Residual
  Residual-Control   Outer-Iter.   Inner-Iter.     Column Row Layer    Maximum-Head-Change  Column Row Layer    Maximum-Flux-Residual          L2-NORM 
          0                 1           2            10   10     1       0.4640895942E-02       2    1    1         0.2237147550E+00      0.1164927878E+01
          0                 2           2            10   10     1       0.2085545492E-02      10   10    1         0.5416882695E-01      0.3113966222E+00
          0                 3           2            10   10     1       0.9372099478E-03      10   10    1         0.2434261218E-01      0.1201576873E+00
          0                 4           2            10   10     1       0.4211661872E-03      10   10    1         0.1093916822E-01      0.5242798295E-01
          0                 5           2            10   10     1       0.1892646432E-03      10   10    1         0.4915874670E-02      0.2339219311E-01
          0                 6           1            10   10     1       0.8505206684E-04      10   10    1         0.2209106668E-02      0.1047362277E-01
          0                 7           1            10   10     1       0.3822078787E-04      10   10    1         0.9927318467E-03      0.4692127638E-02
          0                 8           1            10   10     1       0.1717567409E-04      10   10    1         0.4461147770E-03      0.2102310412E-02
          0                 9           1            10   10     1       0.7718400786E-05      10   10    1         0.2004751943E-03      0.9419954386E-03

    ------------------------------------------------
       NWT REQUIRED            9 OUTER ITERATIONS 
       AND A TOTAL OF         14 INNER ITERATIONS.
    ------------------------------------------------

 NO OUTPUT CONTROL FOR STRESS PERIOD   13   TIME STEP   21
 
 SOLVING FOR HEAD 
                                                   Max.-Head-Change                         Max.-Flux-Residual
  Residual-Control   Outer-Iter.   Inner-Iter.     Column Row Layer    Maximum-Head-Change  Column Row Layer    Maximum-Flux-Residual          L2-NORM 
          0                 1           2            10   10     1       0.4638161679E-02       2    1    1         0.2233518498E+00      0.1163913500E+01
          0                 2           2            10   10     1       0.2084313737E-02      10   10    1         0.5413689814E-01      0.3111084242E+00
          0                 3           2            10   10     1       0.9366550645E-03      10   10    1         0.2432822865E-01      0.1200258575E+00
          0                 4           2            10   10     1       0.4209162265E-03      10   10    1         0.1093268873E-01      0.5236792832E-01
          0                 5           2            10   10     1       0.1891520442E-03      10   10    1         0.4912955828E-02      0.2336518361E-01
          0                 6           1            10   10     1       0.8500134507E-04      10   10    1         0.2207791823E-02      0.1046150893E-01
          0                 7           1            10   10     1       0.3819794022E-04      10   10    1         0.9921395631E-03      0.4686697493E-02
          0                 8           1            10   10     1       0.1716538227E-04      10   10    1         0.4458479784E-03      0.2099876751E-02
          0                 9           1            10   10     1       0.7713764727E-05      10   10    1         0.2003550160E-03      0.9409033604E-03

    ------------------------------------------------
       NWT REQUIRED            9 OUTER ITERATIONS 
       AND A TOTAL OF         14 INNER ITERATIONS.
    ------------------------------------------------

 NO OUTPUT CONTROL FOR STRESS PERIOD   13   TIME STEP   22
 
 SOLVING FOR HEAD 
                                                   Max.-Head-Change                         Max.-Flux-Residual
  Residual-Control   Outer-Iter.   Inner-Iter.     Column Row Layer    Maximum-Head-Change  Column Row Layer    Maximum-Flux-Residual          L2-NORM 
          0                 1           2            10   10     1       0.4635423335E-02       2    1    1         0.2229919106E+00      0.1162938487E+01
          0                 2           2            10   10     1       0.2083080174E-02      10   10    1         0.5410492181E-01      0.3108373908E+00
          0                 3           2            10   10     1       0.9360993798E-03      10   10    1         0.2431382406E-01      0.1198963612E+00
          0                 4           2            10   10     1       0.4206659104E-03      10   10    1         0.1092619990E-01      0.5230849964E-01
          0                 5           2            10   10     1       0.1890392874E-03      10   10    1         0.4910032849E-02      0.2333842873E-01
          0                 6           1            10   10     1       0.8495055327E-04      10   10    1         0.2206475148E-02      0.1044950745E-01
          0                 7           1            10   10     1       0.3817506157E-04      10   10    1         0.9915464742E-03      0.4681317235E-02
          0                 8           1            10   10     1       0.1715507694E-04      10   10    1         0.4455808310E-03      0.2097465185E-02
          0                 9           1            10   10     1       0.7709123417E-05      10   10    1         0.2002346888E-03      0.9398244559E-03

    ------------------------------------------------
       NWT REQUIRED            9 OUTER ITERATIONS 
       AND A TOTAL OF         14 INNER ITERATIONS.
    ------------------------------------------------

 NO OUTPUT CONTROL FOR STRESS PERIOD   13   TIME STEP   23
 
 SOLVING FOR HEAD 
                                                   Max.-Head-Change                         Max.-Flux-Residual
  Residual-Control   Outer-Iter.   Inner-Iter.     Column Row Layer    Maximum-Head-Change  Column Row Layer    Maximum-Flux-Residual          L2-NORM 
          0                 1           2            10   10     1       0.4632681010E-02       2    1    1         0.2226337038E+00      0.1161998145E+01
          0                 2           2            10   10     1       0.2081844846E-02      10   10    1         0.5407289914E-01      0.3105580768E+00
          0                 3           2            10   10     1       0.9355429139E-03      10   10    1         0.2429939894E-01      0.1197659473E+00
          0                 4           2            10   10     1       0.4204152483E-03      10   10    1         0.1091970197E-01      0.5224907000E-01
          0                 5           2            10   10     1       0.1889263773E-03      10   10    1         0.4907105840E-02      0.2331169597E-01
          0                 6           1            10   10     1       0.8489969444E-04      10   10    1         0.2205156692E-02      0.1043751064E-01
          0                 7           1            10   10     1       0.3815215289E-04      10   10    1         0.9909525852E-03      0.4675936639E-02
          0                 8           1            10   10     1       0.1714475786E-04      10   10    1         0.4453133205E-03      0.2095052636E-02
          0                 9           1            10   10     1       0.7704475603E-05      10   10    1         0.2001141951E-03      0.9387412201E-03

    ------------------------------------------------
       NWT REQUIRED            9 OUTER ITERATIONS 
       AND A TOTAL OF         14 INNER ITERATIONS.
    ------------------------------------------------

 NO OUTPUT CONTROL FOR STRESS PERIOD   13   TIME STEP   24
 
 SOLVING FOR HEAD 
                                                   Max.-Head-Change                         Max.-Flux-Residual
  Residual-Control   Outer-Iter.   Inner-Iter.     Column Row Layer    Maximum-Head-Change  Column Row Layer    Maximum-Flux-Residual          L2-NORM 
          0                 1           2            10   10     1       0.4629825240E-02       2    1    1         0.2222796143E+00      0.1160950173E+01
          0                 2           2            10   10     1       0.2080558505E-02      10   10    1         0.5403955219E-01      0.3102605800E+00
          0                 3           2            10   10     1       0.9349635080E-03      10   10    1         0.2428437830E-01      0.1196312830E+00
          0                 4           2            10   10     1       0.4201542707E-03      10   10    1         0.1091293625E-01      0.5218806657E-01
          0                 5           2            10   10     1       0.1888088291E-03      10   10    1         0.4904058419E-02      0.2328430317E-01
          0                 6           1            10   10     1       0.8484674968E-04      10   10    1         0.2203784089E-02      0.1042523319E-01
          0                 7           1            10   10     1       0.3812830631E-04      10   10    1         0.9903343543E-03      0.4670437909E-02
          0                 8           1            10   10     1       0.1713401784E-04      10   10    1         0.4450348690E-03      0.2092593562E-02
          0                 9           1            10   10     1       0.7699637955E-05      10   10    1         0.1999887802E-03      0.9376365916E-03

    ------------------------------------------------
       NWT REQUIRED            9 OUTER ITERATIONS 
       AND A TOTAL OF         14 INNER ITERATIONS.
    ------------------------------------------------

 NO OUTPUT CONTROL FOR STRESS PERIOD   13   TIME STEP   25
 
 SOLVING FOR HEAD 
                                                   Max.-Head-Change                         Max.-Flux-Residual
  Residual-Control   Outer-Iter.   Inner-Iter.     Column Row Layer    Maximum-Head-Change  Column Row Layer    Maximum-Flux-Residual          L2-NORM 
          0                 1           2            10   10     1       0.4627075280E-02       2    1    1         0.2219271889E+00      0.1159924393E+01
          0                 2           2            10   10     1       0.2079319797E-02      10   10    1         0.5400744064E-01      0.3099731413E+00
          0                 3           2            10   10     1       0.9344055460E-03      10   10    1         0.2426991384E-01      0.1195011219E+00
          0                 4           2            10   10     1       0.4199029466E-03      10   10    1         0.1090642091E-01      0.5212902856E-01
          0                 5           2            10   10     1       0.1886956263E-03      10   10    1         0.4901123710E-02      0.2325776608E-01
          0                 6           1            10   10     1       0.8479576079E-04      10   10    1         0.2202462224E-02      0.1041332768E-01
          0                 7           1            10   10     1       0.3810534036E-04      10   10    1         0.9897389623E-03      0.4665096829E-02
          0                 8           1            10   10     1       0.1712367375E-04      10   10    1         0.4447666989E-03      0.2090193777E-02
          0                 9           1            10   10     1       0.7694979137E-05      10   10    1         0.1998679944E-03      0.9365628650E-03

    ------------------------------------------------
       NWT REQUIRED            9 OUTER ITERATIONS 
       AND A TOTAL OF         14 INNER ITERATIONS.
    ------------------------------------------------

 NO OUTPUT CONTROL FOR STRESS PERIOD   13   TIME STEP   26
 
 SOLVING FOR HEAD 
                                                   Max.-Head-Change                         Max.-Flux-Residual
  Residual-Control   Outer-Iter.   Inner-Iter.     Column Row Layer    Maximum-Head-Change  Column Row Layer    Maximum-Flux-Residual          L2-NORM 
          0                 1           2            10   10     1       0.4624321441E-02       2    1    1         0.2215788217E+00      0.1158964369E+01
          0                 2           2            10   10     1       0.2078079263E-02      10   10    1         0.5397528342E-01      0.3096937150E+00
          0                 3           2            10   10     1       0.9338467256E-03      10   10    1         0.2425542787E-01      0.1193714746E+00
          0                 4           2            10   10     1       0.4196512204E-03      10   10    1         0.1089989547E-01      0.5206991370E-01
          0                 5           2            10   10     1       0.1885822353E-03      10   10    1         0.4898184261E-02      0.2323116658E-01
          0                 6           1            10   10     1       0.8474468411E-04      10   10    1         0.2201138139E-02      0.1040139157E-01
          0                 7           1            10   10     1       0.3808233340E-04      10   10    1         0.9891425334E-03      0.4659743619E-02
          0                 8           1            10   10     1       0.1711331065E-04      10   10    1         0.4444980409E-03      0.2087793346E-02
          0                 9           1            10   10     1       0.7690311314E-05      10   10    1         0.1997469818E-03      0.9354864956E-03

    ------------------------------------------------
       NWT REQUIRED            9 OUTER ITERATIONS 
       AND A TOTAL OF         14 INNER ITERATIONS.
    ------------------------------------------------

 NO OUTPUT CONTROL FOR STRESS PERIOD   13   TIME STEP   27
 
 SOLVING FOR HEAD 
                                                   Max.-Head-Change                         Max.-Flux-Residual
  Residual-Control   Outer-Iter.   Inner-Iter.     Column Row Layer    Maximum-Head-Change  Column Row Layer    Maximum-Flux-Residual          L2-NORM 
          0                 1           2            10   10     1       0.4621563826E-02       2    1    1         0.2212320525E+00      0.1158164842E+01
          0                 2           2            10   10     1       0.2076837166E-02      10   10    1         0.5394308277E-01      0.3094320232E+00
          0                 3           2            10   10     1       0.9332872630E-03      10   10    1         0.2424092395E-01      0.1192449250E+00
          0                 4           2            10   10     1       0.4193992315E-03      10   10    1         0.1089336266E-01      0.5201167802E-01
          0                 5           2            10   10     1       0.1884687379E-03      10   10    1         0.4895241814E-02      0.2320492474E-01
          0                 6           1            10   10     1       0.8469356517E-04      10   10    1         0.2199812852E-02      0.1038961191E-01
          0                 7           1            10   10     1       0.3805930967E-04      10   10    1         0.9885456265E-03      0.4654459722E-02
          0                 8           1            10   10     1       0.1710294155E-04      10   10    1         0.4442292029E-03      0.2085424060E-02
          0                 9           1            10   10     1       0.7685640991E-05      10   10    1         0.1996258975E-03      0.9344238860E-03

    ------------------------------------------------
       NWT REQUIRED            9 OUTER ITERATIONS 
       AND A TOTAL OF         14 INNER ITERATIONS.
    ------------------------------------------------

 NO OUTPUT CONTROL FOR STRESS PERIOD   13   TIME STEP   28
 
 SOLVING FOR HEAD 
                                                   Max.-Head-Change                         Max.-Flux-Residual
  Residual-Control   Outer-Iter.   Inner-Iter.     Column Row Layer    Maximum-Head-Change  Column Row Layer    Maximum-Flux-Residual          L2-NORM 
          0                 1           2            10   10     1       0.4618802528E-02       2    1    1         0.2208880699E+00      0.1150936489E+01
          0                 2           2            10   10     1       0.2075593330E-02      10   10    1         0.5391083873E-01      0.3084181996E+00
          0                 3           2            10   10     1       0.9327269807E-03      10   10    1         0.2422639955E-01      0.1190687366E+00
          0                 4           2            10   10     1       0.4191468582E-03      10   10    1         0.1088682021E-01      0.5195457899E-01
          0                 5           2            10   10     1       0.1883550606E-03      10   10    1         0.4892294845E-02      0.2318036149E-01
          0                 6           1            10   10     1       0.8464236219E-04      10   10    1         0.2198485445E-02      0.1037847064E-01
          0                 7           1            10   10     1       0.3803624668E-04      10   10    1         0.9879477274E-03      0.4649384253E-02
          0                 8           1            10   10     1       0.1709255344E-04      10   10    1         0.4439598985E-03      0.2083118041E-02
          0                 9           1            10   10     1       0.7680962164E-05      10   10    1         0.1995046022E-03      0.9333786446E-03

    ------------------------------------------------
       NWT REQUIRED            9 OUTER ITERATIONS 
       AND A TOTAL OF         14 INNER ITERATIONS.
    ------------------------------------------------

 NO OUTPUT CONTROL FOR STRESS PERIOD   13   TIME STEP   29
 
 SOLVING FOR HEAD 
                                                   Max.-Head-Change                         Max.-Flux-Residual
  Residual-Control   Outer-Iter.   Inner-Iter.     Column Row Layer    Maximum-Head-Change  Column Row Layer    Maximum-Flux-Residual          L2-NORM 
          0                 1           2            10   10     1       0.4615928032E-02       2    1    1         0.2205446859E+00      0.1139313600E+01
          0                 2           2            10   10     1       0.2074298698E-02      10   10    1         0.5387727378E-01      0.3068626218E+00
          0                 3           2            10   10     1       0.9321439061E-03      10   10    1         0.2421128242E-01      0.1188354759E+00
          0                 4           2            10   10     1       0.4188842574E-03      10   10    1         0.1088001180E-01      0.5188841815E-01
          0                 5           2            10   10     1       0.1882367944E-03      10   10    1         0.4889228530E-02      0.2315340980E-01
          0                 6           1            10   10     1       0.8458909954E-04      10   10    1         0.2197104481E-02      0.1036655049E-01
          0                 7           1            10   10     1       0.3801225978E-04      10   10    1         0.9873258004E-03      0.4644040500E-02
          0                 8           1            10   10     1       0.1708175089E-04      10   10    1         0.4436798103E-03      0.2080717509E-02
          0                 9           1            10   10     1       0.7676097254E-05      10   10    1         0.1993784660E-03      0.9323017786E-03

    ------------------------------------------------
       NWT REQUIRED            9 OUTER ITERATIONS 
       AND A TOTAL OF         14 INNER ITERATIONS.
    ------------------------------------------------

 NO OUTPUT CONTROL FOR STRESS PERIOD   13   TIME STEP   30



 STREAM LISTING     PERIOD     13   STEP       30

 LAYER ROW COL. STREAM  RCH.  FLOW INTO     FLOW TO   FLOW OUT OF   OVRLND.     DIRECT     STREAM       STREAM     STREAM     STREAM   STREAMBED  STREAMBED
                SEG.NO.  NO.  STRM. RCH.    AQUIFER    STRM. RCH.    RUNOFF     PRECIP       ET          HEAD       DEPTH      WIDTH   CONDCTNC.   GRADIENT

   1    1    1     1     1    3.1000E+00  7.9303E-02   3.0207E+00  0.000E+00  0.000E+00  0.000E+00  1.09369E+03  6.377E-01  4.844E+00  2.180E-02  1.213E+00
   1    2    2     1     2    3.0207E+00  1.2174E-01   2.8990E+00  0.000E+00  0.000E+00  0.000E+00  1.08869E+03  6.304E-01  4.791E+00  3.353E-02  1.210E+00
   1    3    3     1     3    2.8990E+00  1.0276E-01   2.7962E+00  0.000E+00  0.000E+00  0.000E+00  1.08304E+03  6.219E-01  4.729E+00  2.837E-02  1.207E+00
   1    3    4     1     4    2.7962E+00  9.3747E-02   2.7024E+00  0.000E+00  0.000E+00  0.000E+00  1.07802E+03  6.144E-01  4.673E+00  2.594E-02  1.205E+00
   1    4    5     2     1    7.0245E-01  2.4385E-01   4.5860E-01  0.000E+00  0.000E+00  0.000E+00  1.07206E+03  1.263E-01  1.200E+01  7.800E-02  1.042E+00
   1    5    6     2     2    4.5860E-01  1.8574E-01   2.7285E-01  0.000E+00  0.000E+00  0.000E+00  1.06661E+03  9.573E-02  1.200E+01  6.000E-02  1.032E+00
   1    6    6     2     3    2.7285E-01  1.8377E-01   8.9086E-02  0.000E+00  0.000E+00  0.000E+00  1.06186E+03  6.276E-02  1.200E+01  6.000E-02  1.021E+00
   1    7    6     2     4    8.9086E-02  8.9086E-02   0.0000E+00  0.000E+00  0.000E+00  0.000E+00  1.05708E+03  9.230E-03  1.200E+01  6.000E-02  1.003E+00
   1    8    6     2     5    0.0000E+00  0.0000E+00   0.0000E+00  0.000E+00  0.000E+00  0.000E+00  1.05236E+03  0.000E+00  1.200E+01  6.000E-02  1.000E+00
   1    3    5     3     1    2.0000E+00  2.8252E-01   1.7175E+00  0.000E+00  0.000E+00  0.000E+00  1.07555E+03  1.909E+00  9.636E+00  7.227E-02  1.955E+00
   1    3    6     3     2    1.7175E+00  2.4905E-01   1.4684E+00  0.000E+00  0.000E+00  0.000E+00  1.07264E+03  1.727E+00  8.909E+00  6.682E-02  1.864E+00
   1    3    7     3     3    1.4684E+00  1.9718E-01   1.2712E+00  0.000E+00  0.000E+00  0.000E+00  1.06987E+03  1.555E+00  8.218E+00  5.547E-02  1.777E+00
   1    4    8     3     4    1.2712E+00  2.2567E-01   1.0456E+00  0.000E+00  0.000E+00  0.000E+00  1.06682E+03  1.364E+00  7.455E+00  6.709E-02  1.682E+00
   1    5    8     3     5    1.0456E+00  1.5790E-01   8.8768E-01  0.000E+00  0.000E+00  0.000E+00  1.06362E+03  1.164E+00  6.655E+00  4.991E-02  1.582E+00
   1    6    8     3     6    8.8768E-01  5.5980E-02   8.3170E-01  0.000E+00  0.000E+00  0.000E+00  1.06158E+03  1.036E+00  6.145E+00  1.844E-02  1.518E+00
   1    5   10     4     1    1.0000E+01  9.0919E-02   9.9091E+00  0.000E+00  0.000E+00  0.000E+00  1.07836E+03  6.368E-01  1.000E+01  2.500E-02  1.212E+00
   1    5    9     4     2    9.9091E+00  1.8158E-01   9.7275E+00  0.000E+00  0.000E+00  0.000E+00  1.07154E+03  6.315E-01  1.000E+01  5.000E-02  1.211E+00
   1    6    8     4     3    9.7275E+00  1.2689E-01   9.6006E+00  0.000E+00  0.000E+00  0.000E+00  1.06381E+03  6.256E-01  1.000E+01  3.500E-02  1.209E+00
   1    6    8     5     1    1.0432E+01  2.2686E-01   1.0205E+01  0.000E+00  0.000E+00  0.000E+00  1.05868E+03  6.790E-01  1.542E+01  6.166E-02  1.226E+00
   1    7    7     5     2    1.0205E+01  2.7894E-01   9.9265E+00  0.000E+00  0.000E+00  0.000E+00  1.05417E+03  6.732E-01  1.519E+01  7.594E-02  1.224E+00
   1    8    7     5     3    9.9265E+00  1.9221E-01   9.7343E+00  0.000E+00  0.000E+00  0.000E+00  1.04992E+03  6.676E-01  1.497E+01  5.241E-02  1.223E+00
   1    8    6     5     4    9.7343E+00  1.3577E-01   9.5985E+00  0.000E+00  0.000E+00  0.000E+00  1.04691E+03  6.637E-01  1.482E+01  3.706E-02  1.221E+00
   1    9    6     6     1    9.5985E+00  2.2097E-01   9.3776E+00  0.000E+00  0.000E+00  0.000E+00  1.04341E+03  6.828E-01  1.200E+01  6.000E-02  1.228E+00
   1   10    7     6     2    9.3776E+00  2.2039E-01   9.1572E+00  0.000E+00  0.000E+00  0.000E+00  1.03885E+03  6.732E-01  1.200E+01  6.000E-02  1.224E+00
   1   11    7     6     3    9.1572E+00  2.1981E-01   8.9374E+00  0.000E+00  0.000E+00  0.000E+00  1.03430E+03  6.636E-01  1.200E+01  6.000E-02  1.221E+00
   1   12    7     6     4    8.9374E+00  2.1923E-01   8.7181E+00  0.000E+00  0.000E+00  0.000E+00  1.02974E+03  6.539E-01  1.200E+01  6.000E-02  1.218E+00
   1   13    7     6     5    8.7181E+00 -2.1937E-01   8.9375E+00  0.000E+00  0.000E+00  0.000E+00  1.02656E+03  6.539E-01  1.200E+01  2.400E-01 -3.047E-01
   1   14    9     7     1    1.5000E+02  1.1465E+00   1.4885E+02  0.000E+00  0.000E+00  0.000E+00  1.03987E+03  2.288E+00  5.530E+01  5.593E-01  6.833E-01
   1   13    8     7     2    1.4885E+02  1.5932E+00   1.4726E+02  0.000E+00  0.000E+00  0.000E+00  1.03478E+03  2.281E+00  5.526E+01  6.149E-01  8.637E-01
   1   13    7     7     3    1.4726E+02  1.2377E+00   1.4602E+02  0.000E+00  0.000E+00  0.000E+00  1.02969E+03  2.273E+00  5.523E+01  5.586E-01  7.386E-01
   1   13    6     8     1    1.5496E+02  6.2239E-01   1.5434E+02  0.000E+00  0.000E+00  0.000E+00  1.02472E+03  2.849E+00  4.131E+01  4.210E-01  4.928E-01
   1   13    5     8     2    1.5434E+02 -4.5746E-01   1.5480E+02  0.000E+00  0.000E+00  0.000E+00  1.01847E+03  2.849E+00  4.131E+01  4.209E+00 -3.623E-02
   1   13    4     8     3    1.5480E+02 -3.4353E+00   1.5823E+02  0.000E+00  0.000E+00  0.000E+00  1.01224E+03  2.862E+00  4.150E+01  4.229E+00 -2.708E-01
   1   13    3     8     4    1.5823E+02 -4.3086E+00   1.6254E+02  0.000E+00  0.000E+00  0.000E+00  1.00601E+03  2.888E+00  4.188E+01  4.268E+00 -3.365E-01
   1   13    2     8     5    1.6254E+02 -2.8505E+00   1.6539E+02  0.000E+00  0.000E+00  0.000E+00  9.99787E+02  2.912E+00  4.223E+01  4.303E+00 -2.208E-01
   1   13    1     8     6    1.6539E+02 -2.0848E+00   1.6747E+02  0.000E+00  0.000E+00  0.000E+00  9.94804E+02  2.929E+00  4.247E+01  2.597E+00 -2.676E-01
   1    6    8     9     1    0.0000E+00  0.0000E+00   0.0000E+00  0.000E+00  0.000E+00  0.000E+00  1.07850E+03  0.000E+00  4.000E+00  0.000E+00  1.000E+00





UNSATURATED ZONE PACKAGE VOLUMETRIC BUDGET FOR  TIME STEP    30 STRESS PERIOD   13
  ------------------------------------------------------------------------------



     CUMULATIVE VOLUMES      L**3       RATES FOR THIS TIME STEP      L**3/T
     ------------------                 ------------------------

           IN:                                      IN:
           ---                                      ---
        INFILTRATION =    17787597.4070          INFILTRATION =       0.0000E+00

          OUT:                                     OUT:
          ----                                     ----
              UZF ET =   544908199.8558                UZF ET =       0.0000E+00
        UZF RECHARGE =   764811666.9598          UZF RECHARGE =          21.1214

            IN - OUT = -1291932269.4086              IN - OUT =         -21.1214

          STORAGE:                                 STORAGE:
          --------                                 --------
      STORAGE CHANGE = -1291906415.6312        STORAGE CHANGE =         -21.1214

 PERCENT DISCREPANCY IS DIFFERENCE BETWEEN IN-OUT MINUS CHANGE IN STORAGE
 DIVIDED BY THE AVERAGE OF IN AND OUT TIMES 100

 PERCENT DISCREPANCY =          -0.00     PERCENT DISCREPANCY =           0.00






1
  VOLUMETRIC BUDGET FOR ENTIRE MODEL AT END OF TIME STEP   30, STRESS PERIOD  13
  ------------------------------------------------------------------------------

     CUMULATIVE VOLUMES      L**3       RATES FOR THIS TIME STEP      L**3/T
     ------------------                 ------------------------

           IN:                                      IN:
           ---                                      ---
             STORAGE     =    32762654.0000               STORAGE     =       3.3329E-02
       CONSTANT HEAD     =           0.0000         CONSTANT HEAD     =           0.0000
               WELLS     =           0.0000                 WELLS     =           0.0000
     HEAD DEP BOUNDS     =     8704654.0000       HEAD DEP BOUNDS     =           0.2729
      STREAM LEAKAGE     =   352864864.0000        STREAM LEAKAGE     =           8.9817
        UZF RECHARGE     =   764811456.0000          UZF RECHARGE     =          21.1214
               GW ET     =           0.0000                 GW ET     =           0.0000
     SURFACE LEAKAGE     =           0.0000       SURFACE LEAKAGE     =           0.0000
    SUPPLEMENTARY WELLS  =           0.0000      SUPPLEMENTARY WELLS  =           0.0000

                TOTAL IN =  1159143680.0000                  TOTAL IN =          30.4093

          OUT:                                     OUT:
          ----                                     ----
             STORAGE     =   728112896.0000               STORAGE     =          16.7439
       CONSTANT HEAD     =           0.0000         CONSTANT HEAD     =           0.0000
               WELLS     =           0.0000                 WELLS     =           0.0000
     HEAD DEP BOUNDS     =     9103384.0000       HEAD DEP BOUNDS     =           0.2891
      STREAM LEAKAGE     =   337314304.0000        STREAM LEAKAGE     =          13.3560
        UZF RECHARGE     =           0.0000          UZF RECHARGE     =           0.0000
               GW ET     =    84457488.0000                 GW ET     =       1.7500E-02
     SURFACE LEAKAGE     =           0.0000       SURFACE LEAKAGE     =           0.0000
    SUPPLEMENTARY WELLS  =       36673.0352      SUPPLEMENTARY WELLS  =           0.0000

               TOTAL OUT =  1159024768.0000                 TOTAL OUT =          30.4064

                IN - OUT =      118912.0000                  IN - OUT =       2.9163E-03

     PERCENT DISCREPANCY =           0.01         PERCENT DISCREPANCY =           0.01






         TIME SUMMARY AT END OF TIME STEP   30 IN STRESS PERIOD   13
                    SECONDS     MINUTES      HOURS       DAYS        YEARS
                    -----------------------------------------------------------
   TIME STEP LENGTH  87600.      1460.0      24.333      1.0139     2.77588E-03
 STRESS PERIOD TIME 2.62800E+06  43800.      730.00      30.417     8.32763E-02
         TOTAL TIME 3.16224E+07 5.27040E+05  8784.0      366.00      1.0021    
1
1
                            STRESS PERIOD NO.   14, LENGTH =   2628000.    
                            -----------------------------------------------

                              NUMBER OF TIME STEPS =    30

                               MULTIPLIER FOR DELT =     1.000

                            INITIAL TIME STEP SIZE =   87600.00    

 WELL NO.  LAYER   ROW   COL   STRESS RATE         
 --------------------------------------------------
      1      1      6      4       0.000    
      2      1      6      7       0.000    
      3      1      7      4       0.000    
      4      1      7      5       0.000    
      5      1      8      4       0.000    
      6      1      8      5       0.000    
      7      1      9      4       0.000    
      8      1      9      5       0.000    
      9      1     10      4       0.000    
     10      1     10      5       0.000    

     10 WELLS

 REUSING NON-PARAMETER GHB CELLS FROM LAST STRESS PERIOD

      2 GHB CELLS

 REUSING STREAM SEGMENT DATA FROM LAST STRESS PERIOD



            AREAL INFILTRATION RATE
 READING ON UNIT   19 WITH FORMAT: (10F4.0)            

            1           2           3           4           5           6           7           8           9          10
 ........................................................................................................................
   1    0.000       0.000       0.000       0.000       0.000       0.000       0.000       0.000       0.000       0.000    
   2    0.000       0.000       0.000       0.000       0.000       0.000       0.000       0.000       0.000       0.000    
   3    0.000       0.000       0.000       0.000       0.000       0.000       0.000       0.000       0.000       0.000    
   4    0.000       0.000       0.000       0.000       0.000       0.000       0.000       0.000       0.000       0.000    
   5    0.000       0.000       0.000       0.000       0.000       0.000       0.000       0.000       0.000       0.000    
   6    0.000       0.000       0.000       0.000       0.000       0.000       0.000       0.000       0.000       0.000    
   7    0.000       0.000       0.000       0.000       0.000       0.000       0.000       0.000       0.000       0.000    
   8    0.000       0.000       0.000       0.000       0.000       0.000       0.000       0.000       0.000       0.000    
   9    0.000       0.000       0.000       0.000       0.000       0.000       0.000       0.000       0.000       0.000    
  10    0.000       0.000       0.000       0.000       0.000       0.000       0.000       0.000       0.000       0.000    
  11    0.000       0.000       0.000       0.000       0.000       0.000       0.000       0.000       0.000       0.000    
  12    0.000       0.000       0.000       0.000       0.000       0.000       0.000       0.000       0.000       0.000    
  13    0.000       0.000       0.000       0.000       0.000       0.000       0.000       0.000       0.000       0.000    
  14    0.000       0.000       0.000       0.000       0.000       0.000       0.000       0.000       0.000       0.000    
  15    0.000       0.000       0.000       0.000       0.000       0.000       0.000       0.000       0.000       0.000    

                  ET RATE =  1.000000E-10

 USING ET EXTINCTION DEPTH FROM PREVIOUS STRESS PERIOD. CURRENT PERIOD IS:      14

 USING EXTINCTION WATER CONTENT FROM PREVIOUS STRESS PERIOD. CURRENT PERIOD IS:      14

 PROCESSING AGO STRESS PERIOD DATA

 READING AGO STRESS PERIOD DATA

 READING IRRIGATION STREAM

 READING IRRIGATION WELL

 READING SUPPLEMENTAL WEL

 END PROCESSING AGO STRESS PERIOD DATA OPTIONS
 
 SOLVING FOR HEAD 
                                                   Max.-Head-Change                         Max.-Flux-Residual
  Residual-Control   Outer-Iter.   Inner-Iter.     Column Row Layer    Maximum-Head-Change  Column Row Layer    Maximum-Flux-Residual          L2-NORM 
          0                 1           2            10   10     1       0.4613159698E-02       2    1    1         0.2201976599E+00      0.1137186440E+01
          0                 2           2            10   10     1       0.2073051751E-02      10   10    1         0.5384494785E-01      0.3064547604E+00
          0                 3           2            10   10     1       0.9315822488E-03      10   10    1         0.2419672182E-01      0.1186941476E+00
          0                 4           2            10   10     1       0.4186312768E-03      10   10    1         0.1087345334E-01      0.5182774264E-01
          0                 5           2            10   10     1       0.1881228480E-03      10   10    1         0.4886274482E-02      0.2312641677E-01
          0                 6           1            10   10     1       0.8453777775E-04      10   10    1         0.2195773948E-02      0.1035447970E-01
          0                 7           1            10   10     1       0.3798914452E-04      10   10    1         0.9867265196E-03      0.4638637731E-02
          0                 8           1            10   10     1       0.1707133977E-04      10   10    1         0.4434098930E-03      0.2078298430E-02
          0                 9           1            10   10     1       0.7671408422E-05      10   10    1         0.1992568991E-03      0.9312176555E-03

    ------------------------------------------------
       NWT REQUIRED            9 OUTER ITERATIONS 
       AND A TOTAL OF         14 INNER ITERATIONS.
    ------------------------------------------------

 NO OUTPUT CONTROL FOR STRESS PERIOD   14   TIME STEP    1
 
 SOLVING FOR HEAD 
                                                   Max.-Head-Change                         Max.-Flux-Residual
  Residual-Control   Outer-Iter.   Inner-Iter.     Column Row Layer    Maximum-Head-Change  Column Row Layer    Maximum-Flux-Residual          L2-NORM 
          0                 1           2            10   10     1       0.4610278342E-02       2    1    1         0.2198534131E+00      0.1135400955E+01
          0                 2           2            10   10     1       0.2071754088E-02      10   10    1         0.5381130307E-01      0.3060890597E+00
          0                 3           2            10   10     1       0.9309978340E-03      10   10    1         0.2418156941E-01      0.1185578010E+00
          0                 4           2            10   10     1       0.4183680829E-03      10   10    1         0.1086662933E-01      0.5176799977E-01
          0                 5           2            10   10     1       0.1880043202E-03      10   10    1         0.4883201277E-02      0.2309973001E-01
          0                 6           1            10   10     1       0.8448439955E-04      10   10    1         0.2194389940E-02      0.1034254273E-01
          0                 7           1            10   10     1       0.3796510635E-04      10   10    1         0.9861032455E-03      0.4633285258E-02
          0                 8           1            10   10     1       0.1706051471E-04      10   10    1         0.4431292129E-03      0.2077801776E-02
          0                 9           1            10   10     1       0.7666533758E-05      10   10    1         0.1991305009E-03      0.9350663444E-03

    ------------------------------------------------
       NWT REQUIRED            9 OUTER ITERATIONS 
       AND A TOTAL OF         14 INNER ITERATIONS.
    ------------------------------------------------

 NO OUTPUT CONTROL FOR STRESS PERIOD   14   TIME STEP    2
 
 SOLVING FOR HEAD 
                                                   Max.-Head-Change                         Max.-Flux-Residual
  Residual-Control   Outer-Iter.   Inner-Iter.     Column Row Layer    Maximum-Head-Change  Column Row Layer    Maximum-Flux-Residual          L2-NORM 
          0                 1           2            10   10     1       0.4607503366E-02       2    1    1         0.2195119191E+00      0.1134019957E+01
          0                 2           2            10   10     1       0.2070504206E-02      10   10    1         0.5377889986E-01      0.3057695434E+00
          0                 3           2            10   10     1       0.9304348809E-03      10   10    1         0.2416697466E-01      0.1184266218E+00
          0                 4           2            10   10     1       0.4181145296E-03      10   10    1         0.1086005579E-01      0.5170946768E-01
          0                 5           2            10   10     1       0.1878901215E-03      10   10    1         0.4880240570E-02      0.2307350006E-01
          0                 6           1            10   10     1       0.8443296597E-04      10   10    1         0.2193056464E-02      0.1033078015E-01
          0                 7           1            10   10     1       0.3794194207E-04      10   10    1         0.9855026732E-03      0.4628021606E-02
          0                 8           1            10   10     1       0.1705008233E-04      10   10    1         0.4428587279E-03      0.2073542152E-02
          0                 9           1            10   10     1       0.7661835172E-05      10   10    1         0.1990086785E-03      0.9290865150E-03

    ------------------------------------------------
       NWT REQUIRED            9 OUTER ITERATIONS 
       AND A TOTAL OF         14 INNER ITERATIONS.
    ------------------------------------------------

 NO OUTPUT CONTROL FOR STRESS PERIOD   14   TIME STEP    3
 
 SOLVING FOR HEAD 
                                                   Max.-Head-Change                         Max.-Flux-Residual
  Residual-Control   Outer-Iter.   Inner-Iter.     Column Row Layer    Maximum-Head-Change  Column Row Layer    Maximum-Flux-Residual          L2-NORM 
          0                 1           2            10   10     1       0.4604615540E-02       2    1    1         0.2191731416E+00      0.1132775751E+01
          0                 2           2            10   10     1       0.2069203683E-02      10   10    1         0.5374517981E-01      0.3054600033E+00
          0                 3           2            10   10     1       0.9298492028E-03      10   10    1         0.2415178899E-01      0.1182959275E+00
          0                 4           2            10   10     1       0.4178507790E-03      10   10    1         0.1085321709E-01      0.5165092376E-01
          0                 5           2            10   10     1       0.1877713467E-03      10   10    1         0.4877160870E-02      0.2304726100E-01
          0                 6           1            10   10     1       0.8437947922E-04      10   10    1         0.2191669591E-02      0.1031902592E-01
          0                 7           1            10   10     1       0.3791785562E-04      10   10    1         0.9848781300E-03      0.4622756433E-02
          0                 8           1            10   10     1       0.1703923576E-04      10   10    1         0.4425774874E-03      0.2071183559E-02
          0                 9           1            10   10     1       0.7656951253E-05      10   10    1         0.1988820387E-03      0.9280296064E-03

    ------------------------------------------------
       NWT REQUIRED            9 OUTER ITERATIONS 
       AND A TOTAL OF         14 INNER ITERATIONS.
    ------------------------------------------------

 NO OUTPUT CONTROL FOR STRESS PERIOD   14   TIME STEP    4
 
 SOLVING FOR HEAD 
                                                   Max.-Head-Change                         Max.-Flux-Residual
  Residual-Control   Outer-Iter.   Inner-Iter.     Column Row Layer    Maximum-Head-Change  Column Row Layer    Maximum-Flux-Residual          L2-NORM 
          0                 1           2            10   10     1       0.4601834307E-02       2    1    1         0.2188358471E+00      0.1131259439E+01
          0                 2           2            10   10     1       0.2067951039E-02      10   10    1         0.5371270379E-01      0.3051154879E+00
          0                 3           2            10   10     1       0.9292850298E-03      10   10    1         0.2413716209E-01      0.1181631243E+00
          0                 4           2            10   10     1       0.4175966874E-03      10   10    1         0.1084662937E-01      0.5159247834E-01
          0                 5           2            10   10     1       0.1876569109E-03      10   10    1         0.4874193904E-02      0.2302112593E-01
          0                 6           1            10   10     1       0.8432794109E-04      10   10    1         0.2190333353E-02      0.1030731870E-01
          0                 7           1            10   10     1       0.3789464507E-04      10   10    1         0.9842763346E-03      0.4617511030E-02
          0                 8           1            10   10     1       0.1702878262E-04      10   10    1         0.4423064608E-03      0.2068833735E-02
          0                 9           1            10   10     1       0.7652243663E-05      10   10    1         0.1987599793E-03      0.9269778946E-03

    ------------------------------------------------
       NWT REQUIRED            9 OUTER ITERATIONS 
       AND A TOTAL OF         14 INNER ITERATIONS.
    ------------------------------------------------

 NO OUTPUT CONTROL FOR STRESS PERIOD   14   TIME STEP    5
 
 SOLVING FOR HEAD 
                                                   Max.-Head-Change                         Max.-Flux-Residual
  Residual-Control   Outer-Iter.   Inner-Iter.     Column Row Layer    Maximum-Head-Change  Column Row Layer    Maximum-Flux-Residual          L2-NORM 
          0                 1           2            10   10     1       0.4598940392E-02       2    1    1         0.2185024286E+00      0.1129754798E+01
          0                 2           2            10   10     1       0.2066647830E-02      10   10    1         0.5367891290E-01      0.3047783847E+00
          0                 3           2            10   10     1       0.9286981670E-03      10   10    1         0.2412194516E-01      0.1180282106E+00
          0                 4           2            10   10     1       0.4173324136E-03      10   10    1         0.1083977687E-01      0.5153258349E-01
          0                 5           2            10   10     1       0.1875379058E-03      10   10    1         0.4871108125E-02      0.2299431627E-01
          0                 6           1            10   10     1       0.8427435230E-04      10   10    1         0.2188943797E-02      0.1029531171E-01
          0                 7           1            10   10     1       0.3787051435E-04      10   10    1         0.9836506162E-03      0.4612132472E-02
          0                 8           1            10   10     1       0.1701791680E-04      10   10    1         0.4420247013E-03      0.2066423548E-02
          0                 9           1            10   10     1       0.7647350991E-05      10   10    1         0.1986331030E-03      0.9258966145E-03

    ------------------------------------------------
       NWT REQUIRED            9 OUTER ITERATIONS 
       AND A TOTAL OF         14 INNER ITERATIONS.
    ------------------------------------------------

 NO OUTPUT CONTROL FOR STRESS PERIOD   14   TIME STEP    6
 
 SOLVING FOR HEAD 
                                                   Max.-Head-Change                         Max.-Flux-Residual
  Residual-Control   Outer-Iter.   Inner-Iter.     Column Row Layer    Maximum-Head-Change  Column Row Layer    Maximum-Flux-Residual          L2-NORM 
          0                 1           2            10   10     1       0.4596153084E-02       2    1    1         0.2181716438E+00      0.1128455975E+01
          0                 2           2            10   10     1       0.2065392395E-02      10   10    1         0.5364636568E-01      0.3044569656E+00
          0                 3           2            10   10     1       0.9281327132E-03      10   10    1         0.2410728557E-01      0.1178971681E+00
          0                 4           2            10   10     1       0.4170777343E-03      10   10    1         0.1083317414E-01      0.5147436181E-01
          0                 5           2            10   10     1       0.1874232004E-03      10   10    1         0.4868134280E-02      0.2296824627E-01
          0                 6           1            10   10     1       0.8422269111E-04      10   10    1         0.2187604409E-02      0.1028363048E-01
          0                 7           1            10   10     1       0.3784724702E-04      10   10    1         0.9830473740E-03      0.4606898185E-02
          0                 8           1            10   10     1       0.1700743790E-04      10   10    1         0.4417530160E-03      0.2064077556E-02
          0                 9           1            10   10     1       0.7642631396E-05      10   10    1         0.1985107446E-03      0.9248451633E-03

    ------------------------------------------------
       NWT REQUIRED            9 OUTER ITERATIONS 
       AND A TOTAL OF         14 INNER ITERATIONS.
    ------------------------------------------------

 NO OUTPUT CONTROL FOR STRESS PERIOD   14   TIME STEP    7
 
 SOLVING FOR HEAD 
                                                   Max.-Head-Change                         Max.-Flux-Residual
  Residual-Control   Outer-Iter.   Inner-Iter.     Column Row Layer    Maximum-Head-Change  Column Row Layer    Maximum-Flux-Residual          L2-NORM 
          0                 1           2            10   10     1       0.4593253067E-02       2    1    1         0.2178434637E+00      0.1127275723E+01
          0                 2           2            10   10     1       0.2064086493E-02      10   10    1         0.5361250380E-01      0.3041433155E+00
          0                 3           2            10   10     1       0.9275446624E-03      10   10    1         0.2409203732E-01      0.1177647807E+00
          0                 4           2            10   10     1       0.4168129365E-03      10   10    1         0.1082630782E-01      0.5141541837E-01
          0                 5           2            10   10     1       0.1873039642E-03      10   10    1         0.4865042403E-02      0.2294194951E-01
          0                 6           1            10   10     1       0.8416900052E-04      10   10    1         0.2186212168E-02      0.1027188368E-01
          0                 7           1            10   10     1       0.3782307154E-04      10   10    1         0.9824204726E-03      0.4601644646E-02
          0                 8           1            10   10     1       0.1699655206E-04      10   10    1         0.4414707340E-03      0.2061726221E-02
          0                 9           1            10   10     1       0.7637729970E-05      10   10    1         0.1983836412E-03      0.9237920328E-03

    ------------------------------------------------
       NWT REQUIRED            9 OUTER ITERATIONS 
       AND A TOTAL OF         14 INNER ITERATIONS.
    ------------------------------------------------

 NO OUTPUT CONTROL FOR STRESS PERIOD   14   TIME STEP    8
 
 SOLVING FOR HEAD 
                                                   Max.-Head-Change                         Max.-Flux-Residual
  Residual-Control   Outer-Iter.   Inner-Iter.     Column Row Layer    Maximum-Head-Change  Column Row Layer    Maximum-Flux-Residual          L2-NORM 
          0                 1           2            10   10     1       0.4590350348E-02       2    1    1         0.2175166557E+00      0.1126269686E+01
          0                 2           2            10   10     1       0.2062779291E-02      10   10    1         0.5357860997E-01      0.3038588426E+00
          0                 3           2            10   10     1       0.9269559883E-03      10   10    1         0.2407677370E-01      0.1176366158E+00
          0                 4           2            10   10     1       0.4165478423E-03      10   10    1         0.1081943417E-01      0.5135748297E-01
          0                 5           2            10   10     1       0.1871845872E-03      10   10    1         0.4861947031E-02      0.2291596642E-01
          0                 6           1            10   10     1       0.8411524341E-04      10   10    1         0.2184818264E-02      0.1026024521E-01
          0                 7           1            10   10     1       0.3779886404E-04      10   10    1         0.9817927791E-03      0.4596431088E-02
          0                 8           1            10   10     1       0.1698565172E-04      10   10    1         0.4411880828E-03      0.2059390278E-02
          0                 9           1            10   10     1       0.7632821540E-05      10   10    1         0.1982563639E-03      0.9227455080E-03

    ------------------------------------------------
       NWT REQUIRED            9 OUTER ITERATIONS 
       AND A TOTAL OF         14 INNER ITERATIONS.
    ------------------------------------------------

 NO OUTPUT CONTROL FOR STRESS PERIOD   14   TIME STEP    9
 
 SOLVING FOR HEAD 
                                                   Max.-Head-Change                         Max.-Flux-Residual
  Residual-Control   Outer-Iter.   Inner-Iter.     Column Row Layer    Maximum-Head-Change  Column Row Layer    Maximum-Flux-Residual          L2-NORM 
          0                 1           2            10   10     1       0.4587554357E-02       2    1    1         0.2171936109E+00      0.1125357868E+01
          0                 2           2            10   10     1       0.2061520028E-02      10   10    1         0.5354596176E-01      0.3035795585E+00
          0                 3           2            10   10     1       0.9263888473E-03      10   10    1         0.2406206958E-01      0.1175107609E+00
          0                 4           2            10   10     1       0.4162924191E-03      10   10    1         0.1081281180E-01      0.5130064209E-01
          0                 5           2            10   10     1       0.1870695542E-03      10   10    1         0.4858964532E-02      0.2289045295E-01
          0                 6           1            10   10     1       0.8406343791E-04      10   10    1         0.2183475064E-02      0.1024880699E-01
          0                 7           1            10   10     1       0.3777553343E-04      10   10    1         0.9811878604E-03      0.4591304363E-02
          0                 8           1            10   10     1       0.1697514481E-04      10   10    1         0.4409156566E-03      0.2057092064E-02
          0                 9           1            10   10     1       0.7628089940E-05      10   10    1         0.1981336790E-03      0.9217151003E-03

    ------------------------------------------------
       NWT REQUIRED            9 OUTER ITERATIONS 
       AND A TOTAL OF         14 INNER ITERATIONS.
    ------------------------------------------------

 NO OUTPUT CONTROL FOR STRESS PERIOD   14   TIME STEP   10
 
 SOLVING FOR HEAD 
                                                   Max.-Head-Change                         Max.-Flux-Residual
  Residual-Control   Outer-Iter.   Inner-Iter.     Column Row Layer    Maximum-Head-Change  Column Row Layer    Maximum-Flux-Residual          L2-NORM 
          0                 1           2            10   10     1       0.4584645707E-02       2    1    1         0.2168718818E+00      0.1124295414E+01
          0                 2           2            10   10     1       0.2060210211E-02      10   10    1         0.5351199894E-01      0.3032741901E+00
          0                 3           2            10   10     1       0.9257990211E-03      10   10    1         0.2404677555E-01      0.1173751624E+00
          0                 4           2            10   10     1       0.4160268170E-03      10   10    1         0.1080592474E-01      0.5123916994E-01
          0                 5           2            10   10     1       0.1869499536E-03      10   10    1         0.4855863253E-02      0.2286272487E-01
          0                 6           1            10   10     1       0.8400958225E-04      10   10    1         0.2182078559E-02      0.1023631926E-01
          0                 7           1            10   10     1       0.3775128292E-04      10   10    1         0.9805590241E-03      0.4585683180E-02
          0                 8           1            10   10     1       0.1696422521E-04      10   10    1         0.4406324992E-03      0.2054562100E-02
          0                 9           1            10   10     1       0.7623173007E-05      10   10    1         0.1980061755E-03      0.9205767449E-03

    ------------------------------------------------
       NWT REQUIRED            9 OUTER ITERATIONS 
       AND A TOTAL OF         14 INNER ITERATIONS.
    ------------------------------------------------

 NO OUTPUT CONTROL FOR STRESS PERIOD   14   TIME STEP   11
 
 SOLVING FOR HEAD 
                                                   Max.-Head-Change                         Max.-Flux-Residual
  Residual-Control   Outer-Iter.   Inner-Iter.     Column Row Layer    Maximum-Head-Change  Column Row Layer    Maximum-Flux-Residual          L2-NORM 
          0                 1           2            10   10     1       0.4581734646E-02       2    1    1         0.2165538610E+00      0.1123237367E+01
          0                 2           2            10   10     1       0.2058899443E-02      10   10    1         0.5347800861E-01      0.3029453546E+00
          0                 3           2            10   10     1       0.9252088271E-03      10   10    1         0.2403147071E-01      0.1172298455E+00
          0                 4           2            10   10     1       0.4157610760E-03      10   10    1         0.1079903351E-01      0.5117414833E-01
          0                 5           2            10   10     1       0.1868303022E-03      10   10    1         0.4852760404E-02      0.2283371413E-01
          0                 6           1            10   10     1       0.8395570883E-04      10   10    1         0.2180681484E-02      0.1022338766E-01
          0                 7           1            10   10     1       0.3772702690E-04      10   10    1         0.9799299957E-03      0.4579919789E-02
          0                 8           1            10   10     1       0.1695330411E-04      10   10    1         0.4403492822E-03      0.2051993949E-02
          0                 9           1            10   10     1       0.7618256074E-05      10   10    1         0.1978786623E-03      0.9194626062E-03

    ------------------------------------------------
       NWT REQUIRED            9 OUTER ITERATIONS 
       AND A TOTAL OF         14 INNER ITERATIONS.
    ------------------------------------------------

 NO OUTPUT CONTROL FOR STRESS PERIOD   14   TIME STEP   12
 
 SOLVING FOR HEAD 
                                                   Max.-Head-Change                         Max.-Flux-Residual
  Residual-Control   Outer-Iter.   Inner-Iter.     Column Row Layer    Maximum-Head-Change  Column Row Layer    Maximum-Flux-Residual          L2-NORM 
          0                 1           2            10   10     1       0.4578821259E-02       2    1    1         0.2162371014E+00      0.1121454617E+01
          0                 2           2            10   10     1       0.2057587544E-02      10   10    1         0.5344399072E-01      0.3025517583E+00
          0                 3           2            10   10     1       0.9246180866E-03      10   10    1         0.2401615249E-01      0.1170946119E+00
          0                 4           2            10   10     1       0.4154950721E-03      10   10    1         0.1079213581E-01      0.5111666421E-01
          0                 5           2            10   10     1       0.1867105250E-03      10   10    1         0.4849654459E-02      0.2280818860E-01
          0                 6           1            10   10     1       0.8390177638E-04      10   10    1         0.2179282938E-02      0.1021196580E-01
          0                 7           1            10   10     1       0.3770274212E-04      10   10    1         0.9793002587E-03      0.4574802210E-02
          0                 8           1            10   10     1       0.1694237001E-04      10   10    1         0.4400657346E-03      0.2049700649E-02
          0                 9           1            10   10     1       0.7613332638E-05      10   10    1         0.1977509884E-03      0.9184046113E-03

    ------------------------------------------------
       NWT REQUIRED            9 OUTER ITERATIONS 
       AND A TOTAL OF         14 INNER ITERATIONS.
    ------------------------------------------------

 NO OUTPUT CONTROL FOR STRESS PERIOD   14   TIME STEP   13
 
 SOLVING FOR HEAD 
                                                   Max.-Head-Change                         Max.-Flux-Residual
  Residual-Control   Outer-Iter.   Inner-Iter.     Column Row Layer    Maximum-Head-Change  Column Row Layer    Maximum-Flux-Residual          L2-NORM 
          0                 1           2            10   10     1       0.4575905440E-02       2    1    1         0.2159227923E+00      0.1120343511E+01
          0                 2           2            10   10     1       0.2056274577E-02      10   10    1         0.5340994455E-01      0.3022558380E+00
          0                 3           2            10   10     1       0.9240268756E-03      10   10    1         0.2400082183E-01      0.1169686155E+00
          0                 4           2            10   10     1       0.4152288614E-03      10   10    1         0.1078523265E-01      0.5106024824E-01
          0                 5           2            10   10     1       0.1865906575E-03      10   10    1         0.4846546112E-02      0.2278289078E-01
          0                 6           1            10   10     1       0.8384780342E-04      10   10    1         0.2177883327E-02      0.1020062577E-01
          0                 7           1            10   10     1       0.3767844033E-04      10   10    1         0.9786700608E-03      0.4569719354E-02
          0                 8           1            10   10     1       0.1693142740E-04      10   10    1         0.4397819768E-03      0.2047422199E-02
          0                 9           1            10   10     1       0.7608405700E-05      10   10    1         0.1976232284E-03      0.9173883943E-03

    ------------------------------------------------
       NWT REQUIRED            9 OUTER ITERATIONS 
       AND A TOTAL OF         14 INNER ITERATIONS.
    ------------------------------------------------

 NO OUTPUT CONTROL FOR STRESS PERIOD   14   TIME STEP   14
 
 SOLVING FOR HEAD 
                                                   Max.-Head-Change                         Max.-Flux-Residual
  Residual-Control   Outer-Iter.   Inner-Iter.     Column Row Layer    Maximum-Head-Change  Column Row Layer    Maximum-Flux-Residual          L2-NORM 
          0                 1           2            10   10     1       0.4572987079E-02       2    1    1         0.2156121199E+00      0.1119650890E+01
          0                 2           2            10   10     1       0.2054960381E-02      10   10    1         0.5337586831E-01      0.3020082049E+00
          0                 3           2            10   10     1       0.9234350754E-03      10   10    1         0.2398547667E-01      0.1168488309E+00
          0                 4           2            10   10     1       0.4149623694E-03      10   10    1         0.1077832253E-01      0.5100519447E-01
          0                 5           2            10   10     1       0.1864706555E-03      10   10    1         0.4843434437E-02      0.2275801558E-01
          0                 6           1            10   10     1       0.8379376668E-04      10   10    1         0.2176482137E-02      0.1018942951E-01
          0                 7           1            10   10     1       0.3765410827E-04      10   10    1         0.9780391163E-03      0.4564686741E-02
          0                 8           1            10   10     1       0.1692047103E-04      10   10    1         0.4394978696E-03      0.2045161655E-02
          0                 9           1            10   10     1       0.7603472510E-05      10   10    1         0.1974952995E-03      0.9163681491E-03

    ------------------------------------------------
       NWT REQUIRED            9 OUTER ITERATIONS 
       AND A TOTAL OF         14 INNER ITERATIONS.
    ------------------------------------------------

 NO OUTPUT CONTROL FOR STRESS PERIOD   14   TIME STEP   15
 
 SOLVING FOR HEAD 
                                                   Max.-Head-Change                         Max.-Flux-Residual
  Residual-Control   Outer-Iter.   Inner-Iter.     Column Row Layer    Maximum-Head-Change  Column Row Layer    Maximum-Flux-Residual          L2-NORM 
          0                 1           2            10   10     1       0.4570066273E-02       2    1    1         0.2153026297E+00      0.1118837127E+01
          0                 2           2            10   10     1       0.2053645220E-02      10   10    1         0.5334176418E-01      0.3017402895E+00
          0                 3           2            10   10     1       0.9228429004E-03      10   10    1         0.2397012051E-01      0.1167260456E+00
          0                 4           2            10   10     1       0.4146957350E-03      10   10    1         0.1077140816E-01      0.5094952745E-01
          0                 5           2            10   10     1       0.1863506015E-03      10   10    1         0.4840321162E-02      0.2273298330E-01
          0                 6           1            10   10     1       0.8373971243E-04      10   10    1         0.2175080365E-02      0.1017819303E-01
          0                 7           1            10   10     1       0.3762977022E-04      10   10    1         0.9774079628E-03      0.4559645302E-02
          0                 8           1            10   10     1       0.1690951317E-04      10   10    1         0.4392136960E-03      0.2042900372E-02
          0                 9           1            10   10     1       0.7598538820E-05      10   10    1         0.1973673539E-03      0.9153537327E-03

    ------------------------------------------------
       NWT REQUIRED            9 OUTER ITERATIONS 
       AND A TOTAL OF         14 INNER ITERATIONS.
    ------------------------------------------------

 NO OUTPUT CONTROL FOR STRESS PERIOD   14   TIME STEP   16
 
 SOLVING FOR HEAD 
                                                   Max.-Head-Change                         Max.-Flux-Residual
  Residual-Control   Outer-Iter.   Inner-Iter.     Column Row Layer    Maximum-Head-Change  Column Row Layer    Maximum-Flux-Residual          L2-NORM 
          0                 1           2            10   10     1       0.4567143309E-02       2    1    1         0.2149955149E+00      0.1117909558E+01
          0                 2           2            10   10     1       0.2052329113E-02      10   10    1         0.5330763496E-01      0.3014528820E+00
          0                 3           2            10   10     1       0.9222503111E-03      10   10    1         0.2395475337E-01      0.1165985982E+00
          0                 4           2            10   10     1       0.4144289195E-03      10   10    1         0.1076448898E-01      0.5089244007E-01
          0                 5           2            10   10     1       0.1862304681E-03      10   10    1         0.4837205780E-02      0.2270749384E-01
          0                 6           1            10   10     1       0.8368562317E-04      10   10    1         0.2173677673E-02      0.1016680300E-01
          0                 7           1            10   10     1       0.3760541741E-04      10   10    1         0.9767764131E-03      0.4554555893E-02
          0                 8           1            10   10     1       0.1689854855E-04      10   10    1         0.4389293477E-03      0.2040639674E-02
          0                 9           1            10   10     1       0.7593602128E-05      10   10    1         0.1972393297E-03      0.9143314026E-03

    ------------------------------------------------
       NWT REQUIRED            9 OUTER ITERATIONS 
       AND A TOTAL OF         14 INNER ITERATIONS.
    ------------------------------------------------

 NO OUTPUT CONTROL FOR STRESS PERIOD   14   TIME STEP   17
 
 SOLVING FOR HEAD 
                                                   Max.-Head-Change                         Max.-Flux-Residual
  Residual-Control   Outer-Iter.   Inner-Iter.     Column Row Layer    Maximum-Head-Change  Column Row Layer    Maximum-Flux-Residual          L2-NORM 
          0                 1           2            10   10     1       0.4564218277E-02       2    1    1         0.2146907485E+00      0.1116959008E+01
          0                 2           2            10   10     1       0.2051012099E-02      10   10    1         0.5327348170E-01      0.3011597193E+00
          0                 3           2            10   10     1       0.9216573248E-03      10   10    1         0.2393937569E-01      0.1164719645E+00
          0                 4           2            10   10     1       0.4141619302E-03      10   10    1         0.1075756518E-01      0.5083596154E-01
          0                 5           2            10   10     1       0.1861102590E-03      10   10    1         0.4834088381E-02      0.2268222393E-01
          0                 6           1            10   10     1       0.8363150089E-04      10   10    1         0.2172274099E-02      0.1015548684E-01
          0                 7           1            10   10     1       0.3758104984E-04      10   10    1         0.9761444742E-03      0.4549479546E-02
          0                 8           1            10   10     1       0.1688757768E-04      10   10    1         0.4386448324E-03      0.2038346490E-02
          0                 9           1            10   10     1       0.7588663185E-05      10   10    1         0.1971112368E-03      0.9133136542E-03

    ------------------------------------------------
       NWT REQUIRED            9 OUTER ITERATIONS 
       AND A TOTAL OF         14 INNER ITERATIONS.
    ------------------------------------------------

 NO OUTPUT CONTROL FOR STRESS PERIOD   14   TIME STEP   18
 
 SOLVING FOR HEAD 
                                                   Max.-Head-Change                         Max.-Flux-Residual
  Residual-Control   Outer-Iter.   Inner-Iter.     Column Row Layer    Maximum-Head-Change  Column Row Layer    Maximum-Flux-Residual          L2-NORM 
          0                 1           2            10   10     1       0.4561291063E-02       2    1    1         0.2143883134E+00      0.1115846303E+01
          0                 2           2            10   10     1       0.2049694018E-02      10   10    1         0.5323930258E-01      0.3008661572E+00
          0                 3           2            10   10     1       0.9210638203E-03      10   10    1         0.2392398537E-01      0.1163484931E+00
          0                 4           2            10   10     1       0.4138946909E-03      10   10    1         0.1075063525E-01      0.5078079053E-01
          0                 5           2            10   10     1       0.1859899293E-03      10   10    1         0.4830968022E-02      0.2265749517E-01
          0                 6           1            10   10     1       0.8357732108E-04      10   10    1         0.2170869104E-02      0.1014440304E-01
          0                 7           1            10   10     1       0.3755665476E-04      10   10    1         0.9755118595E-03      0.4544512083E-02
          0                 8           1            10   10     1       0.1687659430E-04      10   10    1         0.4383599975E-03      0.2036212638E-02
          0                 9           1            10   10     1       0.7583717489E-05      10   10    1         0.1969829840E-03      0.9125566171E-03

    ------------------------------------------------
       NWT REQUIRED            9 OUTER ITERATIONS 
       AND A TOTAL OF         14 INNER ITERATIONS.
    ------------------------------------------------

 NO OUTPUT CONTROL FOR STRESS PERIOD   14   TIME STEP   19
 
 SOLVING FOR HEAD 
                                                   Max.-Head-Change                         Max.-Flux-Residual
  Residual-Control   Outer-Iter.   Inner-Iter.     Column Row Layer    Maximum-Head-Change  Column Row Layer    Maximum-Flux-Residual          L2-NORM 
          0                 1           2            10   10     1       0.4558361560E-02       2    1    1         0.2140881799E+00      0.1115253043E+01
          0                 2           2            10   10     1       0.2048374933E-02      10   10    1         0.5320509685E-01      0.3006225474E+00
          0                 3           2            10   10     1       0.9204698749E-03      10   10    1         0.2390858338E-01      0.1162274772E+00
          0                 4           2            10   10     1       0.4136272576E-03      10   10    1         0.1074370020E-01      0.5072526261E-01
          0                 5           2            10   10     1       0.1858695151E-03      10   10    1         0.4827845421E-02      0.2263251164E-01
          0                 6           1            10   10     1       0.8352310401E-04      10   10    1         0.2169463127E-02      0.1013320020E-01
          0                 7           1            10   10     1       0.3753224392E-04      10   10    1         0.9748788148E-03      0.4539491840E-02
          0                 8           1            10   10     1       0.1686560317E-04      10   10    1         0.4380749677E-03      0.2033870644E-02
          0                 9           1            10   10     1       0.7578769042E-05      10   10    1         0.1968546543E-03      0.9113073909E-03

    ------------------------------------------------
       NWT REQUIRED            9 OUTER ITERATIONS 
       AND A TOTAL OF         14 INNER ITERATIONS.
    ------------------------------------------------

 NO OUTPUT CONTROL FOR STRESS PERIOD   14   TIME STEP   20
 
 SOLVING FOR HEAD 
                                                   Max.-Head-Change                         Max.-Flux-Residual
  Residual-Control   Outer-Iter.   Inner-Iter.     Column Row Layer    Maximum-Head-Change  Column Row Layer    Maximum-Flux-Residual          L2-NORM 
          0                 1           2            10   10     1       0.4555320404E-02       2    1    1         0.2137903296E+00      0.1114551300E+01
          0                 2           2            10   10     1       0.2047005852E-02      10   10    1         0.5316958875E-01      0.3003448671E+00
          0                 3           2            10   10     1       0.9198535425E-03      10   10    1         0.2389259823E-01      0.1160898326E+00
          0                 4           2            10   10     1       0.4133497997E-03      10   10    1         0.1073650402E-01      0.5066136259E-01
          0                 5           2            10   10     1       0.1857446114E-03      10   10    1         0.4824605876E-02      0.2260342011E-01
          0                 6           1            10   10     1       0.8346687605E-04      10   10    1         0.2168004773E-02      0.1012001796E-01
          0                 7           1            10   10     1       0.3750693193E-04      10   10    1         0.9742223109E-03      0.4533529228E-02
          0                 8           1            10   10     1       0.1685420887E-04      10   10    1         0.4377794322E-03      0.2031176680E-02
          0                 9           1            10   10     1       0.7573639515E-05      10   10    1         0.1967216114E-03      0.9100915664E-03

    ------------------------------------------------
       NWT REQUIRED            9 OUTER ITERATIONS 
       AND A TOTAL OF         14 INNER ITERATIONS.
    ------------------------------------------------

 NO OUTPUT CONTROL FOR STRESS PERIOD   14   TIME STEP   21
 
 SOLVING FOR HEAD 
                                                   Max.-Head-Change                         Max.-Flux-Residual
  Residual-Control   Outer-Iter.   Inner-Iter.     Column Row Layer    Maximum-Head-Change  Column Row Layer    Maximum-Flux-Residual          L2-NORM 
          0                 1           2            10   10     1       0.4552387393E-02       2    1    1         0.2134947410E+00      0.1113735135E+01
          0                 2           2            10   10     1       0.2045685232E-02      10   10    1         0.5313534228E-01      0.3000577599E+00
          0                 3           2            10   10     1       0.9192589242E-03      10   10    1         0.2387717840E-01      0.1159566354E+00
          0                 4           2            10   10     1       0.4130820721E-03      10   10    1         0.1072956116E-01      0.5060109879E-01
          0                 5           2            10   10     1       0.1856240677E-03      10   10    1         0.4821479845E-02      0.2257642209E-01
          0                 6           1            10   10     1       0.8341260220E-04      10   10    1         0.2166597291E-02      0.1010794336E-01
          0                 7           1            10   10     1       0.3748249558E-04      10   10    1         0.9735886032E-03      0.4528129545E-02
          0                 8           1            10   10     1       0.1684320698E-04      10   10    1         0.4374941156E-03      0.2028761775E-02
          0                 9           1            10   10     1       0.7568686066E-05      10   10    1         0.1965931523E-03      0.9090111105E-03

    ------------------------------------------------
       NWT REQUIRED            9 OUTER ITERATIONS 
       AND A TOTAL OF         14 INNER ITERATIONS.
    ------------------------------------------------

 NO OUTPUT CONTROL FOR STRESS PERIOD   14   TIME STEP   22
 
 SOLVING FOR HEAD 
                                                   Max.-Head-Change                         Max.-Flux-Residual
  Residual-Control   Outer-Iter.   Inner-Iter.     Column Row Layer    Maximum-Head-Change  Column Row Layer    Maximum-Flux-Residual          L2-NORM 
          0                 1           2            10   10     1       0.4549452334E-02       2    1    1         0.2132013812E+00      0.1113047727E+01
          0                 2           2            10   10     1       0.2044363711E-02      10   10    1         0.5310107199E-01      0.2997988206E+00
          0                 3           2            10   10     1       0.9186639118E-03      10   10    1         0.2386174812E-01      0.1158350627E+00
          0                 4           2            10   10     1       0.4128141714E-03      10   10    1         0.1072261371E-01      0.5054591645E-01
          0                 5           2            10   10     1       0.1855034486E-03      10   10    1         0.4818351812E-02      0.2255163868E-01
          0                 6           1            10   10     1       0.8335829559E-04      10   10    1         0.2165188932E-02      0.1009683283E-01
          0                 7           1            10   10     1       0.3745804523E-04      10   10    1         0.9729545120E-03      0.4523150335E-02
          0                 8           1            10   10     1       0.1683219859E-04      10   10    1         0.4372086280E-03      0.2026530238E-02
          0                 9           1            10   10     1       0.7563730115E-05      10   10    1         0.1964646219E-03      0.9080110409E-03

    ------------------------------------------------
       NWT REQUIRED            9 OUTER ITERATIONS 
       AND A TOTAL OF         14 INNER ITERATIONS.
    ------------------------------------------------

 NO OUTPUT CONTROL FOR STRESS PERIOD   14   TIME STEP   23
 
 SOLVING FOR HEAD 
                                                   Max.-Head-Change                         Max.-Flux-Residual
  Residual-Control   Outer-Iter.   Inner-Iter.     Column Row Layer    Maximum-Head-Change  Column Row Layer    Maximum-Flux-Residual          L2-NORM 
          0                 1           2            10   10     1       0.4546405619E-02       2    1    1         0.2129090231E+00      0.1112181877E+01
          0                 2           2            10   10     1       0.2042992084E-02      10   10    1         0.5306549878E-01      0.2994789468E+00
          0                 3           2            10   10     1       0.9180464139E-03      10   10    1         0.2384573313E-01      0.1156819757E+00
          0                 4           2            10   10     1       0.4125361802E-03      10   10    1         0.1071540387E-01      0.5047586259E-01
          0                 5           2            10   10     1       0.1853783010E-03      10   10    1         0.4815106023E-02      0.2252006852E-01
          0                 6           1            10   10     1       0.8330195658E-04      10   10    1         0.2163727731E-02      0.1008264846E-01
          0                 7           1            10   10     1       0.3743268297E-04      10   10    1         0.9722967120E-03      0.4516782551E-02
          0                 8           1            10   10     1       0.1682078102E-04      10   10    1         0.4369125007E-03      0.2023683183E-02
          0                 9           1            10   10     1       0.7558590333E-05      10   10    1         0.1963313167E-03      0.9067519289E-03

    ------------------------------------------------
       NWT REQUIRED            9 OUTER ITERATIONS 
       AND A TOTAL OF         14 INNER ITERATIONS.
    ------------------------------------------------

 NO OUTPUT CONTROL FOR STRESS PERIOD   14   TIME STEP   24
 
 SOLVING FOR HEAD 
                                                   Max.-Head-Change                         Max.-Flux-Residual
  Residual-Control   Outer-Iter.   Inner-Iter.     Column Row Layer    Maximum-Head-Change  Column Row Layer    Maximum-Flux-Residual          L2-NORM 
          0                 1           2            10   10     1       0.4543467124E-02       2    1    1         0.2126200742E+00      0.1111575290E+01
          0                 2           2            10   10     1       0.2041669061E-02      10   10    1         0.5303118859E-01      0.2991928668E+00
          0                 3           2            10   10     1       0.9174507442E-03      10   10    1         0.2383028539E-01      0.1155404617E+00
          0                 4           2            10   10     1       0.4122679924E-03      10   10    1         0.1070844880E-01      0.5041149628E-01
          0                 5           2            10   10     1       0.1852575567E-03      10   10    1         0.4811974654E-02      0.2249135074E-01
          0                 6           1            10   10     1       0.8324759494E-04      10   10    1         0.2162317915E-02      0.1006990523E-01
          0                 7           1            10   10     1       0.3740820885E-04      10   10    1         0.9716619888E-03      0.4511187312E-02
          0                 8           1            10   10     1       0.1680976263E-04      10   10    1         0.4366267399E-03      0.2021342256E-02
          0                 9           1            10   10     1       0.7553629881E-05      10   10    1         0.1962026609E-03      0.9060425290E-03

    ------------------------------------------------
       NWT REQUIRED            9 OUTER ITERATIONS 
       AND A TOTAL OF         14 INNER ITERATIONS.
    ------------------------------------------------

 NO OUTPUT CONTROL FOR STRESS PERIOD   14   TIME STEP   25
 
 SOLVING FOR HEAD 
                                                   Max.-Head-Change                         Max.-Flux-Residual
  Residual-Control   Outer-Iter.   Inner-Iter.     Column Row Layer    Maximum-Head-Change  Column Row Layer    Maximum-Flux-Residual          L2-NORM 
          0                 1           2            10   10     1       0.4540526816E-02       2    1    1         0.2123333037E+00      0.1110941788E+01
          0                 2           2            10   10     1       0.2040345244E-02      10   10    1         0.5299685733E-01      0.2989440261E+00
          0                 3           2            10   10     1       0.9168547273E-03      10   10    1         0.2381482844E-01      0.1154203614E+00
          0                 4           2            10   10     1       0.4119996533E-03      10   10    1         0.1070148969E-01      0.5035696740E-01
          0                 5           2            10   10     1       0.1851367460E-03      10   10    1         0.4808841524E-02      0.2246691638E-01
          0                 6           1            10   10     1       0.8319320479E-04      10   10    1         0.2160907331E-02      0.1005893175E-01
          0                 7           1            10   10     1       0.3738372173E-04      10   10    1         0.9710269243E-03      0.4506197023E-02
          0                 8           1            10   10     1       0.1679873849E-04      10   10    1         0.4363408293E-03      0.2018945826E-02
          0                 9           1            10   10     1       0.7548666678E-05      10   10    1         0.1960739440E-03      0.9046181203E-03

    ------------------------------------------------
       NWT REQUIRED            9 OUTER ITERATIONS 
       AND A TOTAL OF         14 INNER ITERATIONS.
    ------------------------------------------------

 NO OUTPUT CONTROL FOR STRESS PERIOD   14   TIME STEP   26
 
 SOLVING FOR HEAD 
                                                   Max.-Head-Change                         Max.-Flux-Residual
  Residual-Control   Outer-Iter.   Inner-Iter.     Column Row Layer    Maximum-Head-Change  Column Row Layer    Maximum-Flux-Residual          L2-NORM 
          0                 1           2            10   10     1       0.4537475055E-02       2    1    1         0.2120474677E+00      0.1110232402E+01
          0                 2           2            10   10     1       0.2038971412E-02      10   10    1         0.5296122553E-01      0.2986942432E+00
          0                 3           2            10   10     1       0.9162362668E-03      10   10    1         0.2379878786E-01      0.1153038044E+00
          0                 4           2            10   10     1       0.4117212426E-03      10   10    1         0.1069426868E-01      0.5030396012E-01
          0                 5           2            10   10     1       0.1850114154E-03      10   10    1         0.4805590863E-02      0.2244304611E-01
          0                 6           1            10   10     1       0.8313678625E-04      10   10    1         0.2159444010E-02      0.1004820247E-01
          0                 7           1            10   10     1       0.3735832470E-04      10   10    1         0.9703681998E-03      0.4501377240E-02
          0                 8           1            10   10     1       0.1678730591E-04      10   10    1         0.4360443028E-03      0.2016781239E-02
          0                 9           1            10   10     1       0.7543520643E-05      10   10    1         0.1959404650E-03      0.9036484389E-03

    ------------------------------------------------
       NWT REQUIRED            9 OUTER ITERATIONS 
       AND A TOTAL OF         14 INNER ITERATIONS.
    ------------------------------------------------

 NO OUTPUT CONTROL FOR STRESS PERIOD   14   TIME STEP   27
 
 SOLVING FOR HEAD 
                                                   Max.-Head-Change                         Max.-Flux-Residual
  Residual-Control   Outer-Iter.   Inner-Iter.     Column Row Layer    Maximum-Head-Change  Column Row Layer    Maximum-Flux-Residual          L2-NORM 
          0                 1           2            10   10     1       0.4534422054E-02       2    1    1         0.2117649778E+00      0.1109545615E+01
          0                 2           2            10   10     1       0.2037597044E-02      10   10    1         0.5292557933E-01      0.2984464807E+00
          0                 3           2            10   10     1       0.9156175743E-03      10   10    1         0.2378274106E-01      0.1151873130E+00
          0                 4           2            10   10     1       0.4114427315E-03      10   10    1         0.1068704499E-01      0.5025101595E-01
          0                 5           2            10   10     1       0.1848860425E-03      10   10    1         0.4802339051E-02      0.2241925659E-01
          0                 6           1            10   10     1       0.8308034919E-04      10   10    1         0.2157980188E-02      0.1003753468E-01
          0                 7           1            10   10     1       0.3733291992E-04      10   10    1         0.9697092612E-03      0.4496594924E-02
          0                 8           1            10   10     1       0.1677587034E-04      10   10    1         0.4357476847E-03      0.2014637426E-02
          0                 9           1            10   10     1       0.7538372607E-05      10   10    1         0.1958069418E-03      0.9026851124E-03

    ------------------------------------------------
       NWT REQUIRED            9 OUTER ITERATIONS 
       AND A TOTAL OF         14 INNER ITERATIONS.
    ------------------------------------------------

 NO OUTPUT CONTROL FOR STRESS PERIOD   14   TIME STEP   28
 
 SOLVING FOR HEAD 
                                                   Max.-Head-Change                         Max.-Flux-Residual
  Residual-Control   Outer-Iter.   Inner-Iter.     Column Row Layer    Maximum-Head-Change  Column Row Layer    Maximum-Flux-Residual          L2-NORM 
          0                 1           2            10   10     1       0.4531477631E-02       2    1    1         0.2114833770E+00      0.1108890371E+01
          0                 2           2            10   10     1       0.2036271441E-02      10   10    1         0.5289120035E-01      0.2981841386E+00
          0                 3           2            10   10     1       0.9150207834E-03      10   10    1         0.2376726339E-01      0.1150599531E+00
          0                 4           2            10   10     1       0.4111740572E-03      10   10    1         0.1068007690E-01      0.5019213597E-01
          0                 5           2            10   10     1       0.1847650865E-03      10   10    1         0.4799202033E-02      0.2239248264E-01
          0                 6           1            10   10     1       0.8302589651E-04      10   10    1         0.2156567928E-02      0.1002539932E-01
          0                 7           1            10   10     1       0.3730840629E-04      10   10    1         0.9690734790E-03      0.4491099203E-02
          0                 8           1            10   10     1       0.1676483444E-04      10   10    1         0.4354614638E-03      0.2012149845E-02
          0                 9           1            10   10     1       0.7533404902E-05      10   10    1         0.1956780931E-03      0.9015586080E-03

    ------------------------------------------------
       NWT REQUIRED            9 OUTER ITERATIONS 
       AND A TOTAL OF         14 INNER ITERATIONS.
    ------------------------------------------------

 NO OUTPUT CONTROL FOR STRESS PERIOD   14   TIME STEP   29
 
 SOLVING FOR HEAD 
                                                   Max.-Head-Change                         Max.-Flux-Residual
  Residual-Control   Outer-Iter.   Inner-Iter.     Column Row Layer    Maximum-Head-Change  Column Row Layer    Maximum-Flux-Residual          L2-NORM 
          0                 1           2             6    8     1       0.5885580336E-02       6    8    1         0.3144624240E+00      0.1225548929E+01
          0                 2           2            10   10     1       0.2034895718E-02      10   10    1         0.5285552035E-01      0.3097628022E+00
          0                 3           2            10   10     1       0.9144014534E-03      10   10    1         0.2375120063E-01      0.1158380359E+00
          0                 4           2            10   10     1       0.4108952477E-03      10   10    1         0.1067284571E-01      0.5020530868E-01
          0                 5           2            10   10     1       0.1846395738E-03      10   10    1         0.4795946706E-02      0.2237554874E-01
          0                 6           1            10   10     1       0.8296939468E-04      10   10    1         0.2155102468E-02      0.1001624925E-01
          0                 7           1            10   10     1       0.3728297100E-04      10   10    1         0.9684137737E-03      0.4486877844E-02
          0                 8           1            10   10     1       0.1675338460E-04      10   10    1         0.4351644887E-03      0.2010242877E-02
          0                 9           1            10   10     1       0.7528250363E-05      10   10    1         0.1955444075E-03      0.9007001052E-03

    ------------------------------------------------
       NWT REQUIRED            9 OUTER ITERATIONS 
       AND A TOTAL OF         14 INNER ITERATIONS.
    ------------------------------------------------

 NO OUTPUT CONTROL FOR STRESS PERIOD   14   TIME STEP   30



 STREAM LISTING     PERIOD     14   STEP       30

 LAYER ROW COL. STREAM  RCH.  FLOW INTO     FLOW TO   FLOW OUT OF   OVRLND.     DIRECT     STREAM       STREAM     STREAM     STREAM   STREAMBED  STREAMBED
                SEG.NO.  NO.  STRM. RCH.    AQUIFER    STRM. RCH.    RUNOFF     PRECIP       ET          HEAD       DEPTH      WIDTH   CONDCTNC.   GRADIENT

   1    1    1     1     1    7.3575E+00  1.2279E-01   7.2347E+00  0.000E+00  0.000E+00  0.000E+00  1.09386E+03  8.110E-01  7.160E+00  3.222E-02  1.270E+00
   1    2    2     1     2    7.2347E+00  1.8849E-01   7.0463E+00  0.000E+00  0.000E+00  0.000E+00  1.08886E+03  8.053E-01  7.076E+00  4.953E-02  1.268E+00
   1    3    3     1     3    7.0463E+00  1.5918E-01   6.8871E+00  0.000E+00  0.000E+00  0.000E+00  1.08322E+03  7.991E-01  6.983E+00  4.190E-02  1.266E+00
   1    3    4     1     4    6.8871E+00  1.4547E-01   6.7416E+00  0.000E+00  0.000E+00  0.000E+00  1.07820E+03  7.949E-01  6.907E+00  3.833E-02  1.265E+00
   1    4    5     2     1    4.7416E+00  2.6814E-01   4.4735E+00  0.000E+00  0.000E+00  0.000E+00  1.07237E+03  4.377E-01  1.200E+01  7.800E-02  1.146E+00
   1    5    6     2     2    4.4735E+00  2.0545E-01   4.2680E+00  0.000E+00  0.000E+00  0.000E+00  1.06693E+03  4.241E-01  1.200E+01  6.000E-02  1.141E+00
   1    6    6     2     3    4.2680E+00  2.0472E-01   4.0633E+00  0.000E+00  0.000E+00  0.000E+00  1.06220E+03  4.121E-01  1.200E+01  6.000E-02  1.137E+00
   1    7    6     2     4    4.0633E+00  2.0399E-01   3.8593E+00  0.000E+00  0.000E+00  0.000E+00  1.05748E+03  3.998E-01  1.200E+01  6.000E-02  1.133E+00
   1    8    6     2     5    3.8593E+00  2.0324E-01   3.6561E+00  0.000E+00  0.000E+00  0.000E+00  1.05275E+03  3.873E-01  1.200E+01  6.000E-02  1.129E+00
   1    3    5     3     1    2.0000E+00  2.8252E-01   1.7175E+00  0.000E+00  0.000E+00  0.000E+00  1.07555E+03  1.909E+00  9.636E+00  7.227E-02  1.955E+00
   1    3    6     3     2    1.7175E+00  2.4905E-01   1.4684E+00  0.000E+00  0.000E+00  0.000E+00  1.07264E+03  1.727E+00  8.909E+00  6.682E-02  1.864E+00
   1    3    7     3     3    1.4684E+00  1.9718E-01   1.2712E+00  0.000E+00  0.000E+00  0.000E+00  1.06987E+03  1.555E+00  8.218E+00  5.547E-02  1.777E+00
   1    4    8     3     4    1.2712E+00  2.2567E-01   1.0456E+00  0.000E+00  0.000E+00  0.000E+00  1.06682E+03  1.364E+00  7.455E+00  6.709E-02  1.682E+00
   1    5    8     3     5    1.0456E+00  1.5790E-01   8.8768E-01  0.000E+00  0.000E+00  0.000E+00  1.06362E+03  1.164E+00  6.655E+00  4.991E-02  1.582E+00
   1    6    8     3     6    8.8768E-01  5.5980E-02   8.3170E-01  0.000E+00  0.000E+00  0.000E+00  1.06158E+03  1.036E+00  6.145E+00  1.844E-02  1.518E+00
   1    5   10     4     1    1.0000E+01  9.0919E-02   9.9091E+00  0.000E+00  0.000E+00  0.000E+00  1.07836E+03  6.368E-01  1.000E+01  2.500E-02  1.212E+00
   1    5    9     4     2    9.9091E+00  1.8158E-01   9.7275E+00  0.000E+00  0.000E+00  0.000E+00  1.07154E+03  6.315E-01  1.000E+01  5.000E-02  1.211E+00
   1    6    8     4     3    9.7275E+00  1.2689E-01   9.6006E+00  0.000E+00  0.000E+00  0.000E+00  1.06381E+03  6.256E-01  1.000E+01  3.500E-02  1.209E+00
   1    6    8     5     1    1.0432E+01  2.2686E-01   1.0205E+01  0.000E+00  0.000E+00  0.000E+00  1.05868E+03  6.790E-01  1.542E+01  6.166E-02  1.226E+00
   1    7    7     5     2    1.0205E+01  2.7894E-01   9.9265E+00  0.000E+00  0.000E+00  0.000E+00  1.05417E+03  6.732E-01  1.519E+01  7.594E-02  1.224E+00
   1    8    7     5     3    9.9265E+00  1.9221E-01   9.7343E+00  0.000E+00  0.000E+00  0.000E+00  1.04992E+03  6.676E-01  1.497E+01  5.241E-02  1.223E+00
   1    8    6     5     4    9.7343E+00  1.3577E-01   9.5985E+00  0.000E+00  0.000E+00  0.000E+00  1.04691E+03  6.637E-01  1.482E+01  3.706E-02  1.221E+00
   1    9    6     6     1    1.3255E+01  2.2980E-01   1.3025E+01  0.000E+00  0.000E+00  0.000E+00  1.04356E+03  8.301E-01  1.200E+01  6.000E-02  1.277E+00
   1   10    7     6     2    1.3025E+01  2.2928E-01   1.2796E+01  0.000E+00  0.000E+00  0.000E+00  1.03900E+03  8.214E-01  1.200E+01  6.000E-02  1.274E+00
   1   11    7     6     3    1.2796E+01  2.2875E-01   1.2567E+01  0.000E+00  0.000E+00  0.000E+00  1.03445E+03  8.126E-01  1.200E+01  6.000E-02  1.271E+00
   1   12    7     6     4    1.2567E+01  2.2823E-01   1.2339E+01  0.000E+00  0.000E+00  0.000E+00  1.02989E+03  8.038E-01  1.200E+01  6.000E-02  1.268E+00
   1   13    7     6     5    1.2339E+01 -1.9352E-01   1.2532E+01  0.000E+00  0.000E+00  0.000E+00  1.02671E+03  8.031E-01  1.200E+01  2.400E-01 -2.688E-01
   1   14    9     7     1    1.5000E+02  1.1478E+00   1.4885E+02  0.000E+00  0.000E+00  0.000E+00  1.03987E+03  2.288E+00  5.530E+01  5.593E-01  6.840E-01
   1   13    8     7     2    1.4885E+02  1.5810E+00   1.4727E+02  0.000E+00  0.000E+00  0.000E+00  1.03478E+03  2.281E+00  5.526E+01  6.149E-01  8.571E-01
   1   13    7     7     3    1.4727E+02  1.2146E+00   1.4606E+02  0.000E+00  0.000E+00  0.000E+00  1.02969E+03  2.274E+00  5.523E+01  5.586E-01  7.248E-01
   1   13    6     8     1    1.5859E+02  6.1700E-01   1.5797E+02  0.000E+00  0.000E+00  0.000E+00  1.02475E+03  2.874E+00  4.168E+01  4.247E-01  4.843E-01
   1   13    5     8     2    1.5797E+02 -4.2423E-01   1.5840E+02  0.000E+00  0.000E+00  0.000E+00  1.01850E+03  2.874E+00  4.167E+01  4.246E+00 -3.330E-02
   1   13    4     8     3    1.5840E+02 -3.4005E+00   1.6180E+02  0.000E+00  0.000E+00  0.000E+00  1.01226E+03  2.886E+00  4.185E+01  4.265E+00 -2.658E-01
   1   13    3     8     4    1.6180E+02 -4.2687E+00   1.6607E+02  0.000E+00  0.000E+00  0.000E+00  1.00604E+03  2.912E+00  4.223E+01  4.303E+00 -3.307E-01
   1   13    2     8     5    1.6607E+02 -2.7887E+00   1.6885E+02  0.000E+00  0.000E+00  0.000E+00  9.99811E+02  2.936E+00  4.257E+01  4.338E+00 -2.143E-01
   1   13    1     8     6    1.6885E+02 -2.0519E+00   1.7091E+02  0.000E+00  0.000E+00  0.000E+00  9.94826E+02  2.951E+00  4.280E+01  2.617E+00 -2.614E-01
   1    6    8     9     1    0.0000E+00  0.0000E+00   0.0000E+00  0.000E+00  0.000E+00  0.000E+00  1.07850E+03  0.000E+00  4.000E+00  0.000E+00  1.000E+00





UNSATURATED ZONE PACKAGE VOLUMETRIC BUDGET FOR  TIME STEP    30 STRESS PERIOD   14
  ------------------------------------------------------------------------------



     CUMULATIVE VOLUMES      L**3       RATES FOR THIS TIME STEP      L**3/T
     ------------------                 ------------------------

           IN:                                      IN:
           ---                                      ---
        INFILTRATION =    17787597.4070          INFILTRATION =       0.0000E+00

          OUT:                                     OUT:
          ----                                     ----
              UZF ET =   544908199.8558                UZF ET =       0.0000E+00
        UZF RECHARGE =   819852333.6805          UZF RECHARGE =          20.9661

            IN - OUT = -1346972936.1292              IN - OUT =         -20.9661

          STORAGE:                                 STORAGE:
          --------                                 --------
      STORAGE CHANGE = -1346947082.3710        STORAGE CHANGE =         -20.9661

 PERCENT DISCREPANCY IS DIFFERENCE BETWEEN IN-OUT MINUS CHANGE IN STORAGE
 DIVIDED BY THE AVERAGE OF IN AND OUT TIMES 100

 PERCENT DISCREPANCY =          -0.00     PERCENT DISCREPANCY =           0.00






1
  VOLUMETRIC BUDGET FOR ENTIRE MODEL AT END OF TIME STEP   30, STRESS PERIOD  14
  ------------------------------------------------------------------------------

     CUMULATIVE VOLUMES      L**3       RATES FOR THIS TIME STEP      L**3/T
     ------------------                 ------------------------

           IN:                                      IN:
           ---                                      ---
             STORAGE     =    32827420.0000               STORAGE     =       2.1943E-02
       CONSTANT HEAD     =           0.0000         CONSTANT HEAD     =           0.0000
               WELLS     =           0.0000                 WELLS     =           0.0000
     HEAD DEP BOUNDS     =     9421888.0000       HEAD DEP BOUNDS     =           0.2730
      STREAM LEAKAGE     =   376447168.0000        STREAM LEAKAGE     =           9.5794
        UZF RECHARGE     =   819852032.0000          UZF RECHARGE     =          20.9661
               GW ET     =           0.0000                 GW ET     =           0.0000
     SURFACE LEAKAGE     =           0.0000       SURFACE LEAKAGE     =           0.0000
    SUPPLEMENTARY WELLS  =           0.0000      SUPPLEMENTARY WELLS  =           0.0000

                TOTAL IN =  1238548480.0000                  TOTAL IN =          30.8404

          OUT:                                     OUT:
          ----                                     ----
             STORAGE     =   771448384.0000               STORAGE     =          17.4033
       CONSTANT HEAD     =           0.0000         CONSTANT HEAD     =           0.0000
               WELLS     =           0.0000                 WELLS     =           0.0000
     HEAD DEP BOUNDS     =     9863208.0000       HEAD DEP BOUNDS     =           0.2892
      STREAM LEAKAGE     =   372570656.0000        STREAM LEAKAGE     =          13.1276
        UZF RECHARGE     =           0.0000          UZF RECHARGE     =           0.0000
               GW ET     =    84503568.0000                 GW ET     =       1.7500E-02
     SURFACE LEAKAGE     =           0.0000       SURFACE LEAKAGE     =           0.0000
    SUPPLEMENTARY WELLS  =       36673.0352      SUPPLEMENTARY WELLS  =           0.0000

               TOTAL OUT =  1238422528.0000                 TOTAL OUT =          30.8376

                IN - OUT =      125952.0000                  IN - OUT =       2.7905E-03

     PERCENT DISCREPANCY =           0.01         PERCENT DISCREPANCY =           0.01






         TIME SUMMARY AT END OF TIME STEP   30 IN STRESS PERIOD   14
                    SECONDS     MINUTES      HOURS       DAYS        YEARS
                    -----------------------------------------------------------
   TIME STEP LENGTH  87600.      1460.0      24.333      1.0139     2.77588E-03
 STRESS PERIOD TIME 2.62800E+06  43800.      730.00      30.417     8.32763E-02
         TOTAL TIME 3.42504E+07 5.70840E+05  9514.0      396.42      1.0853    
1
1
                            STRESS PERIOD NO.   15, LENGTH =   2628000.    
                            -----------------------------------------------

                              NUMBER OF TIME STEPS =    30

                               MULTIPLIER FOR DELT =     1.000

                            INITIAL TIME STEP SIZE =   87600.00    

 WELL NO.  LAYER   ROW   COL   STRESS RATE         
 --------------------------------------------------
      1      1      6      4       0.000    
      2      1      6      7       0.000    
      3      1      7      4       0.000    
      4      1      7      5       0.000    
      5      1      8      4       0.000    
      6      1      8      5       0.000    
      7      1      9      4       0.000    
      8      1      9      5       0.000    
      9      1     10      4       0.000    
     10      1     10      5       0.000    

     10 WELLS

 REUSING NON-PARAMETER GHB CELLS FROM LAST STRESS PERIOD

      2 GHB CELLS

 REUSING STREAM SEGMENT DATA FROM LAST STRESS PERIOD



            AREAL INFILTRATION RATE
 READING ON UNIT   19 WITH FORMAT: (10F4.0)            

            1           2           3           4           5           6           7           8           9          10
 ........................................................................................................................
   1    0.000       0.000       0.000       0.000       0.000       0.000       0.000       0.000       0.000       0.000    
   2    0.000       0.000       0.000       0.000       0.000       0.000       0.000       0.000       0.000       0.000    
   3    0.000       0.000       0.000       0.000       0.000       0.000       0.000       0.000       0.000       0.000    
   4    0.000       0.000       0.000       0.000       0.000       0.000       0.000       0.000       0.000       0.000    
   5    0.000       0.000       0.000       0.000       0.000       0.000       0.000       0.000       0.000       0.000    
   6    0.000       0.000       0.000       0.000       0.000       0.000       0.000       0.000       0.000       0.000    
   7    0.000       0.000       0.000       0.000       0.000       0.000       0.000       0.000       0.000       0.000    
   8    0.000       0.000       0.000       0.000       0.000       0.000       0.000       0.000       0.000       0.000    
   9    0.000       0.000       0.000       0.000       0.000       0.000       0.000       0.000       0.000       0.000    
  10    0.000       0.000       0.000       0.000       0.000       0.000       0.000       0.000       0.000       0.000    
  11    0.000       0.000       0.000       0.000       0.000       0.000       0.000       0.000       0.000       0.000    
  12    0.000       0.000       0.000       0.000       0.000       0.000       0.000       0.000       0.000       0.000    
  13    0.000       0.000       0.000       0.000       0.000       0.000       0.000       0.000       0.000       0.000    
  14    0.000       0.000       0.000       0.000       0.000       0.000       0.000       0.000       0.000       0.000    
  15    0.000       0.000       0.000       0.000       0.000       0.000       0.000       0.000       0.000       0.000    

                  ET RATE =  1.000000E-10

 USING ET EXTINCTION DEPTH FROM PREVIOUS STRESS PERIOD. CURRENT PERIOD IS:      15

 USING EXTINCTION WATER CONTENT FROM PREVIOUS STRESS PERIOD. CURRENT PERIOD IS:      15

 PROCESSING AGO STRESS PERIOD DATA

 READING AGO STRESS PERIOD DATA

 READING IRRIGATION STREAM

 READING IRRIGATION WELL

 READING SUPPLEMENTAL WEL

 END PROCESSING AGO STRESS PERIOD DATA OPTIONS
 
 SOLVING FOR HEAD 
                                                   Max.-Head-Change                         Max.-Flux-Residual
  Residual-Control   Outer-Iter.   Inner-Iter.     Column Row Layer    Maximum-Head-Change  Column Row Layer    Maximum-Flux-Residual          L2-NORM 
          0                 1           2             6    8     1       0.5866521980E-02       6    8    1         0.3131087045E+00      0.1286159694E+01
          0                 2           2            10   10     1       0.2033568874E-02      10   10    1         0.5282110808E-01      0.3147418114E+00
          0                 3           2            10   10     1       0.9138041289E-03      10   10    1         0.2373570859E-01      0.1161289867E+00
          0                 4           2            10   10     1       0.4106263448E-03      10   10    1         0.1066587145E-01      0.5020139554E-01
          0                 5           2            10   10     1       0.1845185211E-03      10   10    1         0.4792807048E-02      0.2236473731E-01
          0                 6           1            10   10     1       0.8291490048E-04      10   10    1         0.2153689078E-02      0.1001071335E-01
          0                 7           1            10   10     1       0.3725843961E-04      10   10    1         0.9677775130E-03      0.4484312057E-02
          0                 8           1            10   10     1       0.1674234195E-04      10   10    1         0.4348780748E-03      0.2009070560E-02
          0                 9           1            10   10     1       0.7523279656E-05      10   10    1         0.1954154759E-03      0.9001663433E-03

    ------------------------------------------------
       NWT REQUIRED            9 OUTER ITERATIONS 
       AND A TOTAL OF         14 INNER ITERATIONS.
    ------------------------------------------------

 NO OUTPUT CONTROL FOR STRESS PERIOD   15   TIME STEP    1
 
 SOLVING FOR HEAD 
                                                   Max.-Head-Change                         Max.-Flux-Residual
  Residual-Control   Outer-Iter.   Inner-Iter.     Column Row Layer    Maximum-Head-Change  Column Row Layer    Maximum-Flux-Residual          L2-NORM 
          0                 1           2             6    8     1       0.5676139168E-02       6    8    1         0.3025949827E+00      0.1277937375E+01
          0                 2           2            10   10     1       0.2032191989E-02      10   10    1         0.5278539682E-01      0.3141100627E+00
          0                 3           2            10   10     1       0.9131843010E-03      10   10    1         0.2371963240E-01      0.1160363738E+00
          0                 4           2            10   10     1       0.4103473224E-03      10   10    1         0.1065863449E-01      0.5016898621E-01
          0                 5           2            10   10     1       0.1843929173E-03      10   10    1         0.4789549254E-02      0.2235050659E-01
          0                 6           1            10   10     1       0.8285835988E-04      10   10    1         0.2152222565E-02      0.1000427262E-01
          0                 7           1            10   10     1       0.3723298806E-04      10   10    1         0.9671173614E-03      0.4481388059E-02
          0                 8           1            10   10     1       0.1673088536E-04      10   10    1         0.4345809110E-03      0.2007743496E-02
          0                 9           1            10   10     1       0.7518122617E-05      10   10    1         0.1952817099E-03      0.8995642629E-03

    ------------------------------------------------
       NWT REQUIRED            9 OUTER ITERATIONS 
       AND A TOTAL OF         14 INNER ITERATIONS.
    ------------------------------------------------

 NO OUTPUT CONTROL FOR STRESS PERIOD   15   TIME STEP    2
 
 SOLVING FOR HEAD 
                                                   Max.-Head-Change                         Max.-Flux-Residual
  Residual-Control   Outer-Iter.   Inner-Iter.     Column Row Layer    Maximum-Head-Change  Column Row Layer    Maximum-Flux-Residual          L2-NORM 
          0                 1           2             6    8     1       0.5500095690E-02       6    8    1         0.2928792329E+00      0.1271348436E+01
          0                 2           2            10   10     1       0.2030814793E-02      10   10    1         0.5274967460E-01      0.3136192675E+00
          0                 3           2            10   10     1       0.9125643928E-03      10   10    1         0.2370355285E-01      0.1159558889E+00
          0                 4           2            10   10     1       0.4100682900E-03      10   10    1         0.1065139672E-01      0.5013838081E-01
          0                 5           2            10   10     1       0.1842673213E-03      10   10    1         0.4786291413E-02      0.2233678055E-01
          0                 6           1            10   10     1       0.8280182828E-04      10   10    1         0.2150756175E-02      0.9998010532E-02
          0                 7           1            10   10     1       0.3720754326E-04      10   10    1         0.9664573293E-03      0.4478531440E-02
          0                 8           1            10   10     1       0.1671943203E-04      10   10    1         0.4342838235E-03      0.2006458866E-02
          0                 9           1            10   10     1       0.7512967828E-05      10   10    1         0.1951479957E-03      0.8990095812E-03

    ------------------------------------------------
       NWT REQUIRED            9 OUTER ITERATIONS 
       AND A TOTAL OF         14 INNER ITERATIONS.
    ------------------------------------------------

 NO OUTPUT CONTROL FOR STRESS PERIOD   15   TIME STEP    3
 
 SOLVING FOR HEAD 
                                                   Max.-Head-Change                         Max.-Flux-Residual
  Residual-Control   Outer-Iter.   Inner-Iter.     Column Row Layer    Maximum-Head-Change  Column Row Layer    Maximum-Flux-Residual          L2-NORM 
          0                 1           2             6    8     1       0.5337130934E-02       6    8    1         0.2838912655E+00      0.1264755552E+01
          0                 2           2            10   10     1       0.2029437096E-02      10   10    1         0.5271394133E-01      0.3129547912E+00
          0                 3           2            10   10     1       0.9119442159E-03      10   10    1         0.2368746725E-01      0.1158016557E+00
          0                 4           2            10   10     1       0.4097891161E-03      10   10    1         0.1064415572E-01      0.5007541454E-01
          0                 5           2            10   10     1       0.1841416507E-03      10   10    1         0.4783031862E-02      0.2230842354E-01
          0                 6           1            10   10     1       0.8274525767E-04      10   10    1         0.2149288884E-02      0.9985103340E-02
          0                 7           1            10   10     1       0.3718207770E-04      10   10    1         0.9657968274E-03      0.4472658280E-02
          0                 8           1            10   10     1       0.1670796919E-04      10   10    1         0.4339865046E-03      0.2003775818E-02
          0                 9           1            10   10     1       0.7507807787E-05      10   10    1         0.1950141552E-03      0.8977620895E-03

    ------------------------------------------------
       NWT REQUIRED            9 OUTER ITERATIONS 
       AND A TOTAL OF         14 INNER ITERATIONS.
    ------------------------------------------------

 NO OUTPUT CONTROL FOR STRESS PERIOD   15   TIME STEP    4
 
 SOLVING FOR HEAD 
                                                   Max.-Head-Change                         Max.-Flux-Residual
  Residual-Control   Outer-Iter.   Inner-Iter.     Column Row Layer    Maximum-Head-Change  Column Row Layer    Maximum-Flux-Residual          L2-NORM 
          0                 1           2             6    8     1       0.5186383941E-02       6    8    1         0.2755821453E+00      0.1259225724E+01
          0                 2           2            10   10     1       0.2028058935E-02      10   10    1         0.5267819576E-01      0.3124243055E+00
          0                 3           2            10   10     1       0.9113238343E-03      10   10    1         0.2367137627E-01      0.1156744032E+00
          0                 4           2            10   10     1       0.4095098511E-03      10   10    1         0.1063691235E-01      0.5002362643E-01
          0                 5           2            10   10     1       0.1840159404E-03      10   10    1         0.4779771259E-02      0.2228568363E-01
          0                 6           1            10   10     1       0.8268866904E-04      10   10    1         0.2147821124E-02      0.9975025809E-02
          0                 7           1            10   10     1       0.3715660464E-04      10   10    1         0.9651361221E-03      0.4468182735E-02
          0                 8           1            10   10     1       0.1669650260E-04      10   10    1         0.4336890901E-03      0.2001783744E-02
          0                 9           1            10   10     1       0.7502645996E-05      10   10    1         0.1948802755E-03      0.8968758491E-03

    ------------------------------------------------
       NWT REQUIRED            9 OUTER ITERATIONS 
       AND A TOTAL OF         14 INNER ITERATIONS.
    ------------------------------------------------

 NO OUTPUT CONTROL FOR STRESS PERIOD   15   TIME STEP    5
 
 SOLVING FOR HEAD 
                                                   Max.-Head-Change                         Max.-Flux-Residual
  Residual-Control   Outer-Iter.   Inner-Iter.     Column Row Layer    Maximum-Head-Change  Column Row Layer    Maximum-Flux-Residual          L2-NORM 
          0                 1           2             6    8     1       0.5046532494E-02       6    8    1         0.2678785221E+00      0.1254877043E+01
          0                 2           2            10   10     1       0.2026680325E-02      10   10    1         0.5264243833E-01      0.3120396735E+00
          0                 3           2            10   10     1       0.9107032567E-03      10   10    1         0.2365528007E-01      0.1155881860E+00
          0                 4           2            10   10     1       0.4092305016E-03      10   10    1         0.1062966669E-01      0.4998873523E-01
          0                 5           2            10   10     1       0.1838901929E-03      10   10    1         0.4776509666E-02      0.2227017843E-01
          0                 6           1            10   10     1       0.8263206541E-04      10   10    1         0.2146352954E-02      0.9968042013E-02
          0                 7           1            10   10     1       0.3713112583E-04      10   10    1         0.9644752447E-03      0.4465032846E-02
          0                 8           1            10   10     1       0.1668503351E-04      10   10    1         0.4333916012E-03      0.2000354937E-02
          0                 9           1            10   10     1       0.7497483453E-05      10   10    1         0.1947463661E-03      0.8962290873E-03

    ------------------------------------------------
       NWT REQUIRED            9 OUTER ITERATIONS 
       AND A TOTAL OF         14 INNER ITERATIONS.
    ------------------------------------------------

 NO OUTPUT CONTROL FOR STRESS PERIOD   15   TIME STEP    6
 
 SOLVING FOR HEAD 
                                                   Max.-Head-Change                         Max.-Flux-Residual
  Residual-Control   Outer-Iter.   Inner-Iter.     Column Row Layer    Maximum-Head-Change  Column Row Layer    Maximum-Flux-Residual          L2-NORM 
          0                 1           2             6    8     1       0.4916919305E-02       6    8    1         0.2607430661E+00      0.1251065160E+01
          0                 2           2            10   10     1       0.2025350599E-02      10   10    1         0.5260795132E-01      0.3116940898E+00
          0                 3           2            10   10     1       0.9101046305E-03      10   10    1         0.2363975436E-01      0.1155062032E+00
          0                 4           2            10   10     1       0.4089610099E-03      10   10    1         0.1062267722E-01      0.4995462292E-01
          0                 5           2            10   10     1       0.1837688732E-03      10   10    1         0.4773363126E-02      0.2225484456E-01
          0                 6           1            10   10     1       0.8257744991E-04      10   10    1         0.2144936440E-02      0.9961091562E-02
          0                 7           1            10   10     1       0.3710653917E-04      10   10    1         0.9638375643E-03      0.4461875821E-02
          0                 8           1            10   10     1       0.1667396559E-04      10   10    1         0.4331045368E-03      0.1998928365E-02
          0                 9           1            10   10     1       0.7492500741E-05      10   10    1         0.1946171365E-03      0.8955835013E-03

    ------------------------------------------------
       NWT REQUIRED            9 OUTER ITERATIONS 
       AND A TOTAL OF         14 INNER ITERATIONS.
    ------------------------------------------------

 NO OUTPUT CONTROL FOR STRESS PERIOD   15   TIME STEP    7
 
 SOLVING FOR HEAD 
                                                   Max.-Head-Change                         Max.-Flux-Residual
  Residual-Control   Outer-Iter.   Inner-Iter.     Column Row Layer    Maximum-Head-Change  Column Row Layer    Maximum-Flux-Residual          L2-NORM 
          0                 1           2             6    8     1       0.4796400700E-02       6    8    1         0.2541127733E+00      0.1247633722E+01
          0                 2           2            10   10     1       0.2023970976E-02      10   10    1         0.5257216700E-01      0.3113623767E+00
          0                 3           2            10   10     1       0.9094836105E-03      10   10    1         0.2362364640E-01      0.1154244506E+00
          0                 4           2            10   10     1       0.4086814671E-03      10   10    1         0.1061542643E-01      0.4992058151E-01
          0                 5           2            10   10     1       0.1836430424E-03      10   10    1         0.4770099302E-02      0.2223954201E-01
          0                 6           1            10   10     1       0.8252081002E-04      10   10    1         0.2143467294E-02      0.9954154434E-02
          0                 7           1            10   10     1       0.3708104410E-04      10   10    1         0.9631762571E-03      0.4458729823E-02
          0                 8           1            10   10     1       0.1666248925E-04      10   10    1         0.4328068626E-03      0.1997503589E-02
          0                 9           1            10   10     1       0.7487335448E-05      10   10    1         0.1944831499E-03      0.8949390813E-03

    ------------------------------------------------
       NWT REQUIRED            9 OUTER ITERATIONS 
       AND A TOTAL OF         14 INNER ITERATIONS.
    ------------------------------------------------

 NO OUTPUT CONTROL FOR STRESS PERIOD   15   TIME STEP    8
 
 SOLVING FOR HEAD 
                                                   Max.-Head-Change                         Max.-Flux-Residual
  Residual-Control   Outer-Iter.   Inner-Iter.     Column Row Layer    Maximum-Head-Change  Column Row Layer    Maximum-Flux-Residual          L2-NORM 
          0                 1           2             6    8     1       0.4684472389E-02       6    8    1         0.2479591605E+00      0.1244093877E+01
          0                 2           2            10   10     1       0.2022541662E-02      10   10    1         0.5253509067E-01      0.3109834347E+00
          0                 3           2            10   10     1       0.9088402886E-03      10   10    1         0.2360695857E-01      0.1153344607E+00
          0                 4           2            10   10     1       0.4083919155E-03      10   10    1         0.1060791540E-01      0.4988408794E-01
          0                 5           2            10   10     1       0.1835127198E-03      10   10    1         0.4766718676E-02      0.2222320220E-01
          0                 6           1            10   10     1       0.8246215373E-04      10   10    1         0.2141945721E-02      0.9946753826E-02
          0                 7           1            10   10     1       0.3705464413E-04      10   10    1         0.9624914292E-03      0.4455378212E-02
          0                 8           1            10   10     1       0.1665060772E-04      10   10    1         0.4324986413E-03      0.1995987992E-02
          0                 9           1            10   10     1       0.7481987824E-05      10   10    1         0.1943444251E-03      0.8942588672E-03

    ------------------------------------------------
       NWT REQUIRED            9 OUTER ITERATIONS 
       AND A TOTAL OF         14 INNER ITERATIONS.
    ------------------------------------------------

 NO OUTPUT CONTROL FOR STRESS PERIOD   15   TIME STEP    9
 
 SOLVING FOR HEAD 
                                                   Max.-Head-Change                         Max.-Flux-Residual
  Residual-Control   Outer-Iter.   Inner-Iter.     Column Row Layer    Maximum-Head-Change  Column Row Layer    Maximum-Flux-Residual          L2-NORM 
          0                 1           2             6    8     1       0.4580691630E-02       6    8    1         0.2422568017E+00      0.1240857886E+01
          0                 2           2            10   10     1       0.2021161502E-02      10   10    1         0.5249929179E-01      0.3106414892E+00
          0                 3           2            10   10     1       0.9082190395E-03      10   10    1         0.2359084439E-01      0.1152508527E+00
          0                 4           2            10   10     1       0.4081122756E-03      10   10    1         0.1060066196E-01      0.4984973435E-01
          0                 5           2            10   10     1       0.1833868474E-03      10   10    1         0.4763453724E-02      0.2220782488E-01
          0                 6           1            10   10     1       0.8240549657E-04      10   10    1         0.2140476102E-02      0.9939783007E-02
          0                 7           1            10   10     1       0.3702914180E-04      10   10    1         0.9618299244E-03      0.4452221176E-02
          0                 8           1            10   10     1       0.1663912863E-04      10   10    1         0.4322008863E-03      0.1994557701E-02
          0                 9           1            10   10     1       0.7476820780E-05      10   10    1         0.1942104024E-03      0.8939073327E-03

    ------------------------------------------------
       NWT REQUIRED            9 OUTER ITERATIONS 
       AND A TOTAL OF         14 INNER ITERATIONS.
    ------------------------------------------------

 NO OUTPUT CONTROL FOR STRESS PERIOD   15   TIME STEP   10
 
 SOLVING FOR HEAD 
                                                   Max.-Head-Change                         Max.-Flux-Residual
  Residual-Control   Outer-Iter.   Inner-Iter.     Column Row Layer    Maximum-Head-Change  Column Row Layer    Maximum-Flux-Residual          L2-NORM 
          0                 1           2             2    2     1       0.4516769319E-02       6    8    1         0.2369388694E+00      0.1238231318E+01
          0                 2           2            10   10     1       0.2019780814E-02      10   10    1         0.5246348121E-01      0.3103533987E+00
          0                 3           2            10   10     1       0.9075975121E-03      10   10    1         0.2357472386E-01      0.1151698638E+00
          0                 4           2            10   10     1       0.4078324921E-03      10   10    1         0.1059340518E-01      0.4981504977E-01
          0                 5           2            10   10     1       0.1832609030E-03      10   10    1         0.4760187058E-02      0.2219218464E-01
          0                 6           1            10   10     1       0.8234880315E-04      10   10    1         0.2139005608E-02      0.9932714315E-02
          0                 7           1            10   10     1       0.3700362147E-04      10   10    1         0.9611679848E-03      0.4449020525E-02
          0                 8           1            10   10     1       0.1662764103E-04      10   10    1         0.4319029200E-03      0.1993110360E-02
          0                 9           1            10   10     1       0.7471649734E-05      10   10    1         0.1940762742E-03      0.8929556615E-03

    ------------------------------------------------
       NWT REQUIRED            9 OUTER ITERATIONS 
       AND A TOTAL OF         14 INNER ITERATIONS.
    ------------------------------------------------

 NO OUTPUT CONTROL FOR STRESS PERIOD   15   TIME STEP   11
 
 SOLVING FOR HEAD 
                                                   Max.-Head-Change                         Max.-Flux-Residual
  Residual-Control   Outer-Iter.   Inner-Iter.     Column Row Layer    Maximum-Head-Change  Column Row Layer    Maximum-Flux-Residual          L2-NORM 
          0                 1           2             2    2     1       0.4505977969E-02       2    2    1         0.2345214658E+00      0.1236055236E+01
          0                 2           2            10   10     1       0.2018399849E-02      10   10    1         0.5242766073E-01      0.3100952128E+00
          0                 3           2            10   10     1       0.9069759164E-03      10   10    1         0.2355860036E-01      0.1150899789E+00
          0                 4           2            10   10     1       0.4075527037E-03      10   10    1         0.1058614773E-01      0.4978027648E-01
          0                 5           2            10   10     1       0.1831349670E-03      10   10    1         0.4756920387E-02      0.2217649515E-01
          0                 6           1            10   10     1       0.8229211873E-04      10   10    1         0.2137535254E-02      0.9925613402E-02
          0                 7           1            10   10     1       0.3697810790E-04      10   10    1         0.9605061697E-03      0.4445807013E-02
          0                 8           1            10   10     1       0.1661615718E-04      10   10    1         0.4316050330E-03      0.1991654510E-02
          0                 9           1            10   10     1       0.7466480939E-05      10   10    1         0.1939421979E-03      0.8922927501E-03

    ------------------------------------------------
       NWT REQUIRED            9 OUTER ITERATIONS 
       AND A TOTAL OF         14 INNER ITERATIONS.
    ------------------------------------------------

 NO OUTPUT CONTROL FOR STRESS PERIOD   15   TIME STEP   12
 
 SOLVING FOR HEAD 
                                                   Max.-Head-Change                         Max.-Flux-Residual
  Residual-Control   Outer-Iter.   Inner-Iter.     Column Row Layer    Maximum-Head-Change  Column Row Layer    Maximum-Flux-Residual          L2-NORM 
          0                 1           2             2    2     1       0.4495533837E-02       2    2    1         0.2339700313E+00      0.1233931051E+01
          0                 2           2            10   10     1       0.2017018612E-02      10   10    1         0.5239183285E-01      0.3097077423E+00
          0                 3           2            10   10     1       0.9063542051E-03      10   10    1         0.2354247371E-01      0.1149339834E+00
          0                 4           2            10   10     1       0.4072728662E-03      10   10    1         0.1057888894E-01      0.4970955863E-01
          0                 5           2            10   10     1       0.1830090109E-03      10   10    1         0.4753653148E-02      0.2214443686E-01
          0                 6           1            10   10     1       0.8223542531E-04      10   10    1         0.2136064652E-02      0.9911105647E-02
          0                 7           1            10   10     1       0.3695259032E-04      10   10    1         0.9598442545E-03      0.4439248877E-02
          0                 8           1            10   10     1       0.1660467183E-04      10   10    1         0.4313071077E-03      0.1988692406E-02
          0                 9           1            10   10     1       0.7461311894E-05      10   10    1         0.1938081054E-03      0.8909558715E-03

    ------------------------------------------------
       NWT REQUIRED            9 OUTER ITERATIONS 
       AND A TOTAL OF         14 INNER ITERATIONS.
    ------------------------------------------------

 NO OUTPUT CONTROL FOR STRESS PERIOD   15   TIME STEP   13
 
 SOLVING FOR HEAD 
                                                   Max.-Head-Change                         Max.-Flux-Residual
  Residual-Control   Outer-Iter.   Inner-Iter.     Column Row Layer    Maximum-Head-Change  Column Row Layer    Maximum-Flux-Residual          L2-NORM 
          0                 1           2            10   10     1       0.4485638356E-02       2    2    1         0.2334318181E+00      0.1231993562E+01
          0                 2           2            10   10     1       0.2015636928E-02      10   10    1         0.5235599536E-01      0.3094264322E+00
          0                 3           2            10   10     1       0.9057322517E-03      10   10    1         0.2352634165E-01      0.1148370449E+00
          0                 4           2            10   10     1       0.4069929014E-03      10   10    1         0.1057162724E-01      0.4966732132E-01
          0                 5           2            10   10     1       0.1828829894E-03      10   10    1         0.4750384391E-02      0.2212556627E-01
          0                 6           1            10   10     1       0.8217869938E-04      10   10    1         0.2134593275E-02      0.9902649992E-02
          0                 7           1            10   10     1       0.3692705648E-04      10   10    1         0.9591819424E-03      0.4435457934E-02
          0                 8           1            10   10     1       0.1659317847E-04      10   10    1         0.4310089818E-03      0.1986992699E-02
          0                 9           1            10   10     1       0.7456138347E-05      10   10    1         0.1936739097E-03      0.8901934233E-03

    ------------------------------------------------
       NWT REQUIRED            9 OUTER ITERATIONS 
       AND A TOTAL OF         14 INNER ITERATIONS.
    ------------------------------------------------

 NO OUTPUT CONTROL FOR STRESS PERIOD   15   TIME STEP   14
 
 SOLVING FOR HEAD 
                                                   Max.-Head-Change                         Max.-Flux-Residual
  Residual-Control   Outer-Iter.   Inner-Iter.     Column Row Layer    Maximum-Head-Change  Column Row Layer    Maximum-Flux-Residual          L2-NORM 
          0                 1           2            10   10     1       0.4482458105E-02       2    2    1         0.2329018389E+00      0.1230135448E+01
          0                 2           2            10   10     1       0.2014205504E-02      10   10    1         0.5231886451E-01      0.3091655772E+00
          0                 3           2            10   10     1       0.9050879757E-03      10   10    1         0.2350962916E-01      0.1147517611E+00
          0                 4           2            10   10     1       0.4067029191E-03      10   10    1         0.1056410506E-01      0.4962996426E-01
          0                 5           2            10   10     1       0.1827524720E-03      10   10    1         0.4746998730E-02      0.2210871769E-01
          0                 6           1            10   10     1       0.8211995580E-04      10   10    1         0.2133069438E-02      0.9895032215E-02
          0                 7           1            10   10     1       0.3690061699E-04      10   10    1         0.9584960881E-03      0.4432014764E-02
          0                 8           1            10   10     1       0.1658127869E-04      10   10    1         0.4307002959E-03      0.1985437286E-02
          0                 9           1            10   10     1       0.7450782719E-05      10   10    1         0.1935349803E-03      0.8894911962E-03

    ------------------------------------------------
       NWT REQUIRED            9 OUTER ITERATIONS 
       AND A TOTAL OF         14 INNER ITERATIONS.
    ------------------------------------------------

 NO OUTPUT CONTROL FOR STRESS PERIOD   15   TIME STEP   15
 
 SOLVING FOR HEAD 
                                                   Max.-Head-Change                         Max.-Flux-Residual
  Residual-Control   Outer-Iter.   Inner-Iter.     Column Row Layer    Maximum-Head-Change  Column Row Layer    Maximum-Flux-Residual          L2-NORM 
          0                 1           2            10   10     1       0.4479387540E-02       2    2    1         0.2323891497E+00      0.1228359405E+01
          0                 2           2            10   10     1       0.2012823448E-02      10   10    1         0.5228301431E-01      0.3089033710E+00
          0                 3           2            10   10     1       0.9044659200E-03      10   10    1         0.2349349307E-01      0.1146680605E+00
          0                 4           2            10   10     1       0.4064229373E-03      10   10    1         0.1055684230E-01      0.4959426180E-01
          0                 5           2            10   10     1       0.1826264558E-03      10   10    1         0.4743729832E-02      0.2209275023E-01
          0                 6           1            10   10     1       0.8206323762E-04      10   10    1         0.2131598145E-02      0.9887832135E-02
          0                 7           1            10   10     1       0.3687508916E-04      10   10    1         0.9578338836E-03      0.4428762451E-02
          0                 8           1            10   10     1       0.1656978959E-04      10   10    1         0.4304022535E-03      0.1983967787E-02
          0                 9           1            10   10     1       0.7445611424E-05      10   10    1         0.1934008367E-03      0.8888273682E-03

    ------------------------------------------------
       NWT REQUIRED            9 OUTER ITERATIONS 
       AND A TOTAL OF         14 INNER ITERATIONS.
    ------------------------------------------------

 NO OUTPUT CONTROL FOR STRESS PERIOD   15   TIME STEP   16
 
 SOLVING FOR HEAD 
                                                   Max.-Head-Change                         Max.-Flux-Residual
  Residual-Control   Outer-Iter.   Inner-Iter.     Column Row Layer    Maximum-Head-Change  Column Row Layer    Maximum-Flux-Residual          L2-NORM 
          0                 1           2            10   10     1       0.4476206441E-02       2    2    1         0.2318840880E+00      0.1226860204E+01
          0                 2           2            10   10     1       0.2011391677E-02      10   10    1         0.5224587373E-01      0.3086777685E+00
          0                 3           2            10   10     1       0.9038215041E-03      10   10    1         0.2347677661E-01      0.1145878696E+00
          0                 4           2            10   10     1       0.4061328988E-03      10   10    1         0.1054931851E-01      0.4955870437E-01
          0                 5           2            10   10     1       0.1824959163E-03      10   10    1         0.4740343532E-02      0.2207668646E-01
          0                 6           1            10   10     1       0.8200448553E-04      10   10    1         0.2130074059E-02      0.9880566249E-02
          0                 7           1            10   10     1       0.3684864692E-04      10   10    1         0.9571479392E-03      0.4425477012E-02
          0                 8           1            10   10     1       0.1655788856E-04      10   10    1         0.4300935304E-03      0.1982482790E-02
          0                 9           1            10   10     1       0.7440255546E-05      10   10    1         0.1932618933E-03      0.8881561382E-03

    ------------------------------------------------
       NWT REQUIRED            9 OUTER ITERATIONS 
       AND A TOTAL OF         14 INNER ITERATIONS.
    ------------------------------------------------

 NO OUTPUT CONTROL FOR STRESS PERIOD   15   TIME STEP   17
 
 SOLVING FOR HEAD 
                                                   Max.-Head-Change                         Max.-Flux-Residual
  Residual-Control   Outer-Iter.   Inner-Iter.     Column Row Layer    Maximum-Head-Change  Column Row Layer    Maximum-Flux-Residual          L2-NORM 
          0                 1           2            10   10     1       0.4473134977E-02       2    2    1         0.2313910316E+00      0.1225585553E+01
          0                 2           2            10   10     1       0.2010009143E-02      10   10    1         0.5221001266E-01      0.3084693784E+00
          0                 3           2            10   10     1       0.9031992004E-03      10   10    1         0.2346063477E-01      0.1145092559E+00
          0                 4           2            10   10     1       0.4058527912E-03      10   10    1         0.1054205280E-01      0.4952354217E-01
          0                 5           2            10   10     1       0.1823698371E-03      10   10    1         0.4737073141E-02      0.2206079159E-01
          0                 6           1            10   10     1       0.8194773659E-04      10   10    1         0.2128602028E-02      0.9873379352E-02
          0                 7           1            10   10     1       0.3682310433E-04      10   10    1         0.9564853708E-03      0.4422228835E-02
          0                 8           1            10   10     1       0.1654639195E-04      10   10    1         0.4297953045E-03      0.1981015352E-02
          0                 9           1            10   10     1       0.7435080748E-05      10   10    1         0.1931276609E-03      0.8875539634E-03

    ------------------------------------------------
       NWT REQUIRED            9 OUTER ITERATIONS 
       AND A TOTAL OF         14 INNER ITERATIONS.
    ------------------------------------------------

 NO OUTPUT CONTROL FOR STRESS PERIOD   15   TIME STEP   18
 
 SOLVING FOR HEAD 
                                                   Max.-Head-Change                         Max.-Flux-Residual
  Residual-Control   Outer-Iter.   Inner-Iter.     Column Row Layer    Maximum-Head-Change  Column Row Layer    Maximum-Flux-Residual          L2-NORM 
          0                 1           2            10   10     1       0.4470062851E-02       2    2    1         0.2309097183E+00      0.1224362394E+01
          0                 2           2            10   10     1       0.2008626329E-02      10   10    1         0.5217414397E-01      0.3082296748E+00
          0                 3           2            10   10     1       0.9025767778E-03      10   10    1         0.2344448971E-01      0.1144111755E+00
          0                 4           2            10   10     1       0.4055726328E-03      10   10    1         0.1053478571E-01      0.4947944042E-01
          0                 5           2            10   10     1       0.1822437359E-03      10   10    1         0.4733802153E-02      0.2204095741E-01
          0                 6           1            10   10     1       0.8189097814E-04      10   10    1         0.2127129733E-02      0.9864465933E-02
          0                 7           1            10   10     1       0.3679755674E-04      10   10    1         0.9558226789E-03      0.4418223840E-02
          0                 8           1            10   10     1       0.1653489310E-04      10   10    1         0.4294970286E-03      0.1979215873E-02
          0                 9           1            10   10     1       0.7429904950E-05      10   10    1         0.1929934060E-03      0.8866853026E-03

    ------------------------------------------------
       NWT REQUIRED            9 OUTER ITERATIONS 
       AND A TOTAL OF         14 INNER ITERATIONS.
    ------------------------------------------------

 NO OUTPUT CONTROL FOR STRESS PERIOD   15   TIME STEP   19
 
 SOLVING FOR HEAD 
                                                   Max.-Head-Change                         Max.-Flux-Residual
  Residual-Control   Outer-Iter.   Inner-Iter.     Column Row Layer    Maximum-Head-Change  Column Row Layer    Maximum-Flux-Residual          L2-NORM 
          0                 1           2            10   10     1       0.4466880151E-02       2    2    1         0.2304398520E+00      0.1223170148E+01
          0                 2           2            10   10     1       0.2007193891E-02      10   10    1         0.5213698496E-01      0.3080151062E+00
          0                 3           2            10   10     1       0.9019320845E-03      10   10    1         0.2342776556E-01      0.1143284159E+00
          0                 4           2            10   10     1       0.4052824795E-03      10   10    1         0.1052725872E-01      0.4944255985E-01
          0                 5           2            10   10     1       0.1821131494E-03      10   10    1         0.4730414536E-02      0.2202433346E-01
          0                 6           1            10   10     1       0.8183220654E-04      10   10    1         0.2125605105E-02      0.9856965382E-02
          0                 7           1            10   10     1       0.3677110649E-04      10   10    1         0.9551365165E-03      0.4414839892E-02
          0                 8           1            10   10     1       0.1652298931E-04      10   10    1         0.4291882208E-03      0.1977689447E-02
          0                 9           1            10   10     1       0.7424547822E-05      10   10    1         0.1928544298E-03      0.8859995839E-03

    ------------------------------------------------
       NWT REQUIRED            9 OUTER ITERATIONS 
       AND A TOTAL OF         14 INNER ITERATIONS.
    ------------------------------------------------

 NO OUTPUT CONTROL FOR STRESS PERIOD   15   TIME STEP   20
 
 SOLVING FOR HEAD 
                                                   Max.-Head-Change                         Max.-Flux-Residual
  Residual-Control   Outer-Iter.   Inner-Iter.     Column Row Layer    Maximum-Head-Change  Column Row Layer    Maximum-Flux-Residual          L2-NORM 
          0                 1           2            10   10     1       0.4463697322E-02       2    2    1         0.2299811442E+00      0.1221754345E+01
          0                 2           2            10   10     1       0.2005761410E-02      10   10    1         0.5209982451E-01      0.3077718550E+00
          0                 3           2            10   10     1       0.9012873798E-03      10   10    1         0.2341104097E-01      0.1142450322E+00
          0                 4           2            10   10     1       0.4049923249E-03      10   10    1         0.1051973163E-01      0.4940614063E-01
          0                 5           2            10   10     1       0.1819825637E-03      10   10    1         0.4727026907E-02      0.2200790562E-01
          0                 6           1            10   10     1       0.8177343620E-04      10   10    1         0.2124080487E-02      0.9849534254E-02
          0                 7           1            10   10     1       0.3674465725E-04      10   10    1         0.9544503579E-03      0.4411480515E-02
          0                 8           1            10   10     1       0.1651108528E-04      10   10    1         0.4288794117E-03      0.1976171837E-02
          0                 9           1            10   10     1       0.7419190943E-05      10   10    1         0.1927154549E-03      0.8853118244E-03

    ------------------------------------------------
       NWT REQUIRED            9 OUTER ITERATIONS 
       AND A TOTAL OF         14 INNER ITERATIONS.
    ------------------------------------------------

 NO OUTPUT CONTROL FOR STRESS PERIOD   15   TIME STEP   21
 
 SOLVING FOR HEAD 
                                                   Max.-Head-Change                         Max.-Flux-Residual
  Residual-Control   Outer-Iter.   Inner-Iter.     Column Row Layer    Maximum-Head-Change  Column Row Layer    Maximum-Flux-Residual          L2-NORM 
          0                 1           2            10   10     1       0.4460624416E-02       2    2    1         0.2295333818E+00      0.1220539511E+01
          0                 2           2            10   10     1       0.2004378294E-02      10   10    1         0.5206394694E-01      0.3075463505E+00
          0                 3           2            10   10     1       0.9006648439E-03      10   10    1         0.2339489248E-01      0.1141627929E+00
          0                 4           2            10   10     1       0.4047121255E-03      10   10    1         0.1051246326E-01      0.4936989791E-01
          0                 5           2            10   10     1       0.1818564489E-03      10   10    1         0.4723755469E-02      0.2199154608E-01
          0                 6           1            10   10     1       0.8171667375E-04      10   10    1         0.2122608047E-02      0.9842134413E-02
          0                 7           1            10   10     1       0.3671910916E-04      10   10    1         0.9537876340E-03      0.4408136415E-02
          0                 8           1            10   10     1       0.1649958717E-04      10   10    1         0.4285811365E-03      0.1974662022E-02
          0                 9           1            10   10     1       0.7414015646E-05      10   10    1         0.1925812034E-03      0.8846301249E-03

    ------------------------------------------------
       NWT REQUIRED            9 OUTER ITERATIONS 
       AND A TOTAL OF         14 INNER ITERATIONS.
    ------------------------------------------------

 NO OUTPUT CONTROL FOR STRESS PERIOD   15   TIME STEP   22
 
 SOLVING FOR HEAD 
                                                   Max.-Head-Change                         Max.-Flux-Residual
  Residual-Control   Outer-Iter.   Inner-Iter.     Column Row Layer    Maximum-Head-Change  Column Row Layer    Maximum-Flux-Residual          L2-NORM 
          0                 1           2            10   10     1       0.4457441083E-02       2    2    1         0.2290962226E+00      0.1219415052E+01
          0                 2           2            10   10     1       0.2002945621E-02      10   10    1         0.5202678077E-01      0.3073364989E+00
          0                 3           2            10   10     1       0.9000200674E-03      10   10    1         0.2337816570E-01      0.1140823961E+00
          0                 4           2            10   10     1       0.4044219452E-03      10   10    1         0.1050493536E-01      0.4933398161E-01
          0                 5           2            10   10     1       0.1817258552E-03      10   10    1         0.4720367564E-02      0.2197532512E-01
          0                 6           1            10   10     1       0.8165790141E-04      10   10    1         0.2121083343E-02      0.9834805386E-02
          0                 7           1            10   10     1       0.3669265941E-04      10   10    1         0.9531014548E-03      0.4404824561E-02
          0                 8           1            10   10     1       0.1648768364E-04      10   10    1         0.4282723281E-03      0.1973165949E-02
          0                 9           1            10   10     1       0.7408658767E-05      10   10    1         0.1924422334E-03      0.8839552586E-03

    ------------------------------------------------
       NWT REQUIRED            9 OUTER ITERATIONS 
       AND A TOTAL OF         14 INNER ITERATIONS.
    ------------------------------------------------

 NO OUTPUT CONTROL FOR STRESS PERIOD   15   TIME STEP   23
 
 SOLVING FOR HEAD 
                                                   Max.-Head-Change                         Max.-Flux-Residual
  Residual-Control   Outer-Iter.   Inner-Iter.     Column Row Layer    Maximum-Head-Change  Column Row Layer    Maximum-Flux-Residual          L2-NORM 
          0                 1           2            10   10     1       0.4454257602E-02       2    2    1         0.2286694677E+00      0.1218508682E+01
          0                 2           2            10   10     1       0.2001512788E-02      10   10    1         0.5198961243E-01      0.3071413895E+00
          0                 3           2            10   10     1       0.8993751786E-03      10   10    1         0.2336143686E-01      0.1139997475E+00
          0                 4           2            10   10     1       0.4041316966E-03      10   10    1         0.1049740607E-01      0.4929647847E-01
          0                 5           2            10   10     1       0.1815952219E-03      10   10    1         0.4716978810E-02      0.2195834743E-01
          0                 6           1            10   10     1       0.8159910755E-04      10   10    1         0.2119558164E-02      0.9827129951E-02
          0                 7           1            10   10     1       0.3666619842E-04      10   10    1         0.9524150236E-03      0.4401356811E-02
          0                 8           1            10   10     1       0.1647577485E-04      10   10    1         0.4279633934E-03      0.1971599537E-02
          0                 9           1            10   10     1       0.7403299138E-05      10   10    1         0.1923031916E-03      0.8832474172E-03

    ------------------------------------------------
       NWT REQUIRED            9 OUTER ITERATIONS 
       AND A TOTAL OF         14 INNER ITERATIONS.
    ------------------------------------------------

 NO OUTPUT CONTROL FOR STRESS PERIOD   15   TIME STEP   24
 
 SOLVING FOR HEAD 
                                                   Max.-Head-Change                         Max.-Flux-Residual
  Residual-Control   Outer-Iter.   Inner-Iter.     Column Row Layer    Maximum-Head-Change  Column Row Layer    Maximum-Flux-Residual          L2-NORM 
          0                 1           2            10   10     1       0.4451184066E-02       2    2    1         0.2282481338E+00      0.1217647542E+01
          0                 2           2            10   10     1       0.2000129440E-02      10   10    1         0.5195372774E-01      0.3069235240E+00
          0                 3           2            10   10     1       0.8987525609E-03      10   10    1         0.2334528578E-01      0.1139030500E+00
          0                 4           2            10   10     1       0.4038514704E-03      10   10    1         0.1049013679E-01      0.4925264123E-01
          0                 5           2            10   10     1       0.1814690997E-03      10   10    1         0.4713707084E-02      0.2193863184E-01
          0                 6           1            10   10     1       0.8154234335E-04      10   10    1         0.2118085643E-02      0.9818275238E-02
          0                 7           1            10   10     1       0.3664065082E-04      10   10    1         0.9517522835E-03      0.4397380399E-02
          0                 8           1            10   10     1       0.1646427650E-04      10   10    1         0.4276651105E-03      0.1969813705E-02
          0                 9           1            10   10     1       0.7398124090E-05      10   10    1         0.1921689427E-03      0.8824454364E-03

    ------------------------------------------------
       NWT REQUIRED            9 OUTER ITERATIONS 
       AND A TOTAL OF         14 INNER ITERATIONS.
    ------------------------------------------------

 NO OUTPUT CONTROL FOR STRESS PERIOD   15   TIME STEP   25
 
 SOLVING FOR HEAD 
                                                   Max.-Head-Change                         Max.-Flux-Residual
  Residual-Control   Outer-Iter.   Inner-Iter.     Column Row Layer    Maximum-Head-Change  Column Row Layer    Maximum-Flux-Residual          L2-NORM 
          0                 1           2            10   10     1       0.4448000052E-02       2    2    1         0.2278414256E+00      0.1216803365E+01
          0                 2           2            10   10     1       0.1998696401E-02      10   10    1         0.5191655335E-01      0.3067140058E+00
          0                 3           2            10   10     1       0.8981075933E-03      10   10    1         0.2332855460E-01      0.1138143177E+00
          0                 4           2            10   10     1       0.4035611920E-03      10   10    1         0.1048260660E-01      0.4921314497E-01
          0                 5           2            10   10     1       0.1813384557E-03      10   10    1         0.4710317996E-02      0.2192098663E-01
          0                 6           1            10   10     1       0.8148354600E-04      10   10    1         0.2116560343E-02      0.9810371236E-02
          0                 7           1            10   10     1       0.3661418832E-04      10   10    1         0.9510658058E-03      0.4393834162E-02
          0                 8           1            10   10     1       0.1645236696E-04      10   10    1         0.4273561609E-03      0.1968227754E-02
          0                 9           1            10   10     1       0.7392764211E-05      10   10    1         0.1920299033E-03      0.8817591005E-03

    ------------------------------------------------
       NWT REQUIRED            9 OUTER ITERATIONS 
       AND A TOTAL OF         14 INNER ITERATIONS.
    ------------------------------------------------

 NO OUTPUT CONTROL FOR STRESS PERIOD   15   TIME STEP   26
 
 SOLVING FOR HEAD 
                                                   Max.-Head-Change                         Max.-Flux-Residual
  Residual-Control   Outer-Iter.   Inner-Iter.     Column Row Layer    Maximum-Head-Change  Column Row Layer    Maximum-Flux-Residual          L2-NORM 
          0                 1           2            10   10     1       0.4444816073E-02       2    2    1         0.2274443602E+00      0.1215093879E+01
          0                 2           2            10   10     1       0.1997263504E-02      10   10    1         0.5187937996E-01      0.3064155815E+00
          0                 3           2            10   10     1       0.8974627455E-03      10   10    1         0.2331182535E-01      0.1137258070E+00
          0                 4           2            10   10     1       0.4032709929E-03      10   10    1         0.1047507794E-01      0.4917649849E-01
          0                 5           2            10   10     1       0.1812078592E-03      10   10    1         0.4706929893E-02      0.2190464292E-01
          0                 6           1            10   10     1       0.8142477440E-04      10   10    1         0.2115035612E-02      0.9803001775E-02
          0                 7           1            10   10     1       0.3658774033E-04      10   10    1         0.9503796462E-03      0.4390507222E-02
          0                 8           1            10   10     1       0.1644046517E-04      10   10    1         0.4270473727E-03      0.1966719703E-02
          0                 9           1            10   10     1       0.7387407833E-05      10   10    1         0.1918909383E-03      0.8810523217E-03

    ------------------------------------------------
       NWT REQUIRED            9 OUTER ITERATIONS 
       AND A TOTAL OF         14 INNER ITERATIONS.
    ------------------------------------------------

 NO OUTPUT CONTROL FOR STRESS PERIOD   15   TIME STEP   27
 
 SOLVING FOR HEAD 
                                                   Max.-Head-Change                         Max.-Flux-Residual
  Residual-Control   Outer-Iter.   Inner-Iter.     Column Row Layer    Maximum-Head-Change  Column Row Layer    Maximum-Flux-Residual          L2-NORM 
          0                 1           2            10   10     1       0.4441632183E-02       2    2    1         0.2270520145E+00      0.1213965431E+01
          0                 2           2            10   10     1       0.1995830552E-02      10   10    1         0.5184220715E-01      0.3061746453E+00
          0                 3           2            10   10     1       0.8968178312E-03      10   10    1         0.2329509525E-01      0.1136338966E+00
          0                 4           2            10   10     1       0.4029807448E-03      10   10    1         0.1046754840E-01      0.4913572255E-01
          0                 5           2            10   10     1       0.1810772322E-03      10   10    1         0.4703541182E-02      0.2188623576E-01
          0                 6           1            10   10     1       0.8136598580E-04      10   10    1         0.2113510516E-02      0.9794688675E-02
          0                 7           1            10   10     1       0.3656128284E-04      10   10    1         0.9496932792E-03      0.4386759157E-02
          0                 8           1            10   10     1       0.1642855789E-04      10   10    1         0.4267384776E-03      0.1965057255E-02
          0                 9           1            10   10     1       0.7382049454E-05      10   10    1         0.1917519250E-03      0.8803648255E-03

    ------------------------------------------------
       NWT REQUIRED            9 OUTER ITERATIONS 
       AND A TOTAL OF         14 INNER ITERATIONS.
    ------------------------------------------------

 NO OUTPUT CONTROL FOR STRESS PERIOD   15   TIME STEP   28
 
 SOLVING FOR HEAD 
                                                   Max.-Head-Change                         Max.-Flux-Residual
  Residual-Control   Outer-Iter.   Inner-Iter.     Column Row Layer    Maximum-Head-Change  Column Row Layer    Maximum-Flux-Residual          L2-NORM 
          0                 1           2            10   10     1       0.4438448241E-02       2    2    1         0.2266689267E+00      0.1213058316E+01
          0                 2           2            10   10     1       0.1994397593E-02      10   10    1         0.5180503381E-01      0.3059675516E+00
          0                 3           2            10   10     1       0.8961729221E-03      10   10    1         0.2327836512E-01      0.1135481459E+00
          0                 4           2            10   10     1       0.4026905030E-03      10   10    1         0.1046001894E-01      0.4909723189E-01
          0                 5           2            10   10     1       0.1809466092E-03      10   10    1         0.4700152544E-02      0.2186890440E-01
          0                 6           1            10   10     1       0.8130719995E-04      10   10    1         0.2111985472E-02      0.9786886735E-02
          0                 7           1            10   10     1       0.3653482659E-04      10   10    1         0.9490069427E-03      0.4383245376E-02
          0                 8           1            10   10     1       0.1641665185E-04      10   10    1         0.4264295991E-03      0.1963448957E-02
          0                 9           1            10   10     1       0.7376691325E-05      10   10    1         0.1916129178E-03      0.8795800358E-03

    ------------------------------------------------
       NWT REQUIRED            9 OUTER ITERATIONS 
       AND A TOTAL OF         14 INNER ITERATIONS.
    ------------------------------------------------

 NO OUTPUT CONTROL FOR STRESS PERIOD   15   TIME STEP   29
 
 SOLVING FOR HEAD 
                                                   Max.-Head-Change                         Max.-Flux-Residual
  Residual-Control   Outer-Iter.   Inner-Iter.     Column Row Layer    Maximum-Head-Change  Column Row Layer    Maximum-Flux-Residual          L2-NORM 
          0                 1           2             2    2     1       0.6346101501E-02       2    2    1         0.3307524305E+00      0.1389133758E+01
          0                 2           2            10   10     1       0.1992964864E-02       2    2    1         0.5747976909E-01      0.3204134353E+00
          0                 3           2            10   10     1       0.8955281769E-03      10   10    1         0.2326163795E-01      0.1145248158E+00
          0                 4           2            10   10     1       0.4024003624E-03      10   10    1         0.1045249152E-01      0.4915986454E-01
          0                 5           2            10   10     1       0.1808160460E-03      10   10    1         0.4696765163E-02      0.2187197180E-01
          0                 6           1            10   10     1       0.8124844637E-04      10   10    1         0.2110461137E-02      0.9786424139E-02
          0                 7           1            10   10     1       0.3650838760E-04      10   10    1         0.9483209931E-03      0.4382838626E-02
          0                 8           1            10   10     1       0.1640475457E-04      10   10    1         0.4261209281E-03      0.1963220912E-02
          0                 9           1            10   10     1       0.7371337698E-05      10   10    1         0.1914740189E-03      0.8794609077E-03

    ------------------------------------------------
       NWT REQUIRED            9 OUTER ITERATIONS 
       AND A TOTAL OF         14 INNER ITERATIONS.
    ------------------------------------------------

 NO OUTPUT CONTROL FOR STRESS PERIOD   15   TIME STEP   30



 STREAM LISTING     PERIOD     15   STEP       30

 LAYER ROW COL. STREAM  RCH.  FLOW INTO     FLOW TO   FLOW OUT OF   OVRLND.     DIRECT     STREAM       STREAM     STREAM     STREAM   STREAMBED  STREAMBED
                SEG.NO.  NO.  STRM. RCH.    AQUIFER    STRM. RCH.    RUNOFF     PRECIP       ET          HEAD       DEPTH      WIDTH   CONDCTNC.   GRADIENT

   1    1    1     1     1    1.9897E+01  2.2004E-01   1.9677E+01  0.000E+00  0.000E+00  0.000E+00  1.09414E+03  1.097E+00  1.194E+01  5.371E-02  1.366E+00
   1    2    2     1     2    1.9677E+01  3.3950E-01   1.9338E+01  0.000E+00  0.000E+00  0.000E+00  1.08915E+03  1.092E+00  1.185E+01  8.296E-02  1.364E+00
   1    3    3     1     3    1.9338E+01  2.8830E-01   1.9049E+01  0.000E+00  0.000E+00  0.000E+00  1.08351E+03  1.087E+00  1.176E+01  7.054E-02  1.362E+00
   1    3    4     1     4    1.9049E+01  2.6446E-01   1.8785E+01  0.000E+00  0.000E+00  0.000E+00  1.07849E+03  1.082E+00  1.167E+01  6.478E-02  1.361E+00
   1    4    5     2     1    1.6785E+01  3.0775E-01   1.6477E+01  0.000E+00  0.000E+00  0.000E+00  1.07288E+03  9.456E-01  1.200E+01  7.800E-02  1.315E+00
   1    5    6     2     2    1.6477E+01  2.3618E-01   1.6241E+01  0.000E+00  0.000E+00  0.000E+00  1.06745E+03  9.363E-01  1.200E+01  6.000E-02  1.312E+00
   1    6    6     2     3    1.6241E+01  2.3569E-01   1.6005E+01  0.000E+00  0.000E+00  0.000E+00  1.06272E+03  9.281E-01  1.200E+01  6.000E-02  1.309E+00
   1    7    6     2     4    1.6005E+01  2.3520E-01   1.5770E+01  0.000E+00  0.000E+00  0.000E+00  1.05800E+03  9.200E-01  1.200E+01  6.000E-02  1.307E+00
   1    8    6     2     5    1.5770E+01  2.3471E-01   1.5535E+01  0.000E+00  0.000E+00  0.000E+00  1.05327E+03  9.118E-01  1.200E+01  6.000E-02  1.304E+00
   1    3    5     3     1    2.0000E+00  2.8252E-01   1.7175E+00  0.000E+00  0.000E+00  0.000E+00  1.07555E+03  1.909E+00  9.636E+00  7.227E-02  1.955E+00
   1    3    6     3     2    1.7175E+00  2.4905E-01   1.4684E+00  0.000E+00  0.000E+00  0.000E+00  1.07264E+03  1.727E+00  8.909E+00  6.682E-02  1.864E+00
   1    3    7     3     3    1.4684E+00  1.9718E-01   1.2712E+00  0.000E+00  0.000E+00  0.000E+00  1.06987E+03  1.555E+00  8.218E+00  5.547E-02  1.777E+00
   1    4    8     3     4    1.2712E+00  2.2567E-01   1.0456E+00  0.000E+00  0.000E+00  0.000E+00  1.06682E+03  1.364E+00  7.455E+00  6.709E-02  1.682E+00
   1    5    8     3     5    1.0456E+00  1.5790E-01   8.8768E-01  0.000E+00  0.000E+00  0.000E+00  1.06362E+03  1.164E+00  6.655E+00  4.991E-02  1.582E+00
   1    6    8     3     6    8.8768E-01  5.5980E-02   8.3170E-01  0.000E+00  0.000E+00  0.000E+00  1.06158E+03  1.036E+00  6.145E+00  1.844E-02  1.518E+00
   1    5   10     4     1    1.0000E+01  9.0919E-02   9.9091E+00  0.000E+00  0.000E+00  0.000E+00  1.07836E+03  6.368E-01  1.000E+01  2.500E-02  1.212E+00
   1    5    9     4     2    9.9091E+00  1.8158E-01   9.7275E+00  0.000E+00  0.000E+00  0.000E+00  1.07154E+03  6.315E-01  1.000E+01  5.000E-02  1.211E+00
   1    6    8     4     3    9.7275E+00  1.2689E-01   9.6006E+00  0.000E+00  0.000E+00  0.000E+00  1.06381E+03  6.256E-01  1.000E+01  3.500E-02  1.209E+00
   1    6    8     5     1    1.0432E+01  2.2686E-01   1.0205E+01  0.000E+00  0.000E+00  0.000E+00  1.05868E+03  6.790E-01  1.542E+01  6.166E-02  1.226E+00
   1    7    7     5     2    1.0205E+01  2.7894E-01   9.9265E+00  0.000E+00  0.000E+00  0.000E+00  1.05417E+03  6.732E-01  1.519E+01  7.594E-02  1.224E+00
   1    8    7     5     3    9.9265E+00  1.9221E-01   9.7343E+00  0.000E+00  0.000E+00  0.000E+00  1.04992E+03  6.676E-01  1.497E+01  5.241E-02  1.223E+00
   1    8    6     5     4    9.7343E+00  1.3577E-01   9.5985E+00  0.000E+00  0.000E+00  0.000E+00  1.04691E+03  6.637E-01  1.482E+01  3.706E-02  1.221E+00
   1    9    6     6     1    2.5134E+01  2.5328E-01   2.4881E+01  0.000E+00  0.000E+00  0.000E+00  1.04395E+03  1.221E+00  1.200E+01  6.000E-02  1.407E+00
   1   10    7     6     2    2.4881E+01  2.5283E-01   2.4628E+01  0.000E+00  0.000E+00  0.000E+00  1.03940E+03  1.214E+00  1.200E+01  6.000E-02  1.405E+00
   1   11    7     6     3    2.4628E+01  2.5238E-01   2.4375E+01  0.000E+00  0.000E+00  0.000E+00  1.03484E+03  1.206E+00  1.200E+01  6.000E-02  1.402E+00
   1   12    7     6     4    2.4375E+01  2.5194E-01   2.4124E+01  0.000E+00  0.000E+00  0.000E+00  1.03029E+03  1.199E+00  1.200E+01  6.000E-02  1.400E+00
   1   13    7     6     5    2.4124E+01 -1.1108E-01   2.4235E+01  0.000E+00  0.000E+00  0.000E+00  1.02711E+03  1.197E+00  1.200E+01  2.400E-01 -1.543E-01
   1   14    9     7     1    1.5000E+02  1.1491E+00   1.4885E+02  0.000E+00  0.000E+00  0.000E+00  1.03987E+03  2.288E+00  5.530E+01  5.593E-01  6.848E-01
   1   13    8     7     2    1.4885E+02  1.5707E+00   1.4728E+02  0.000E+00  0.000E+00  0.000E+00  1.03478E+03  2.281E+00  5.526E+01  6.149E-01  8.515E-01
   1   13    7     7     3    1.4728E+02  1.1866E+00   1.4609E+02  0.000E+00  0.000E+00  0.000E+00  1.02969E+03  2.274E+00  5.523E+01  5.586E-01  7.081E-01
   1   13    6     8     1    1.7033E+02  6.4551E-01   1.6968E+02  0.000E+00  0.000E+00  0.000E+00  1.02483E+03  2.952E+00  4.281E+01  4.362E-01  4.933E-01
   1   13    5     8     2    1.6968E+02 -2.8758E-01   1.6997E+02  0.000E+00  0.000E+00  0.000E+00  1.01858E+03  2.951E+00  4.279E+01  4.361E+00 -2.198E-02
   1   13    4     8     3    1.6997E+02 -3.3030E+00   1.7327E+02  0.000E+00  0.000E+00  0.000E+00  1.01234E+03  2.963E+00  4.296E+01  4.378E+00 -2.515E-01
   1   13    3     8     4    1.7327E+02 -4.1759E+00   1.7745E+02  0.000E+00  0.000E+00  0.000E+00  1.00611E+03  2.987E+00  4.331E+01  4.413E+00 -3.154E-01
   1   13    2     8     5    1.7745E+02 -2.6703E+00   1.8012E+02  0.000E+00  0.000E+00  0.000E+00  9.99883E+02  3.009E+00  4.362E+01  4.445E+00 -2.002E-01
   1   13    1     8     6    1.8012E+02 -1.9769E+00   1.8210E+02  0.000E+00  0.000E+00  0.000E+00  9.94898E+02  3.023E+00  4.384E+01  2.680E+00 -2.459E-01
   1    6    8     9     1    0.0000E+00  0.0000E+00   0.0000E+00  0.000E+00  0.000E+00  0.000E+00  1.07850E+03  0.000E+00  4.000E+00  0.000E+00  1.000E+00





UNSATURATED ZONE PACKAGE VOLUMETRIC BUDGET FOR  TIME STEP    30 STRESS PERIOD   15
  ------------------------------------------------------------------------------



     CUMULATIVE VOLUMES      L**3       RATES FOR THIS TIME STEP      L**3/T
     ------------------                 ------------------------

           IN:                                      IN:
           ---                                      ---
        INFILTRATION =    17787597.4070          INFILTRATION =       0.0000E+00

          OUT:                                     OUT:
          ----                                     ----
              UZF ET =   544908199.8558                UZF ET =       0.0000E+00
        UZF RECHARGE =   874685155.3260          UZF RECHARGE =          20.8740

            IN - OUT = -1401805757.7748              IN - OUT =         -20.8740

          STORAGE:                                 STORAGE:
          --------                                 --------
      STORAGE CHANGE = -1401779904.0446        STORAGE CHANGE =         -20.8740

 PERCENT DISCREPANCY IS DIFFERENCE BETWEEN IN-OUT MINUS CHANGE IN STORAGE
 DIVIDED BY THE AVERAGE OF IN AND OUT TIMES 100

 PERCENT DISCREPANCY =          -0.00     PERCENT DISCREPANCY =           0.00






1
  VOLUMETRIC BUDGET FOR ENTIRE MODEL AT END OF TIME STEP   30, STRESS PERIOD  15
  ------------------------------------------------------------------------------

     CUMULATIVE VOLUMES      L**3       RATES FOR THIS TIME STEP      L**3/T
     ------------------                 ------------------------

           IN:                                      IN:
           ---                                      ---
             STORAGE     =    32884932.0000               STORAGE     =       2.1749E-02
       CONSTANT HEAD     =           0.0000         CONSTANT HEAD     =           0.0000
               WELLS     =           0.0000                 WELLS     =           0.0000
     HEAD DEP BOUNDS     =    10139354.0000       HEAD DEP BOUNDS     =           0.2731
      STREAM LEAKAGE     =   402221184.0000        STREAM LEAKAGE     =          10.3256
        UZF RECHARGE     =   874684928.0000          UZF RECHARGE     =          20.8740
               GW ET     =           0.0000                 GW ET     =           0.0000
     SURFACE LEAKAGE     =           0.0000       SURFACE LEAKAGE     =           0.0000
    SUPPLEMENTARY WELLS  =           0.0000      SUPPLEMENTARY WELLS  =           0.0000

                TOTAL IN =  1319930368.0000                  TOTAL IN =          31.4944

          OUT:                                     OUT:
          ----                                     ----
             STORAGE     =   817407616.0000               STORAGE     =          18.6594
       CONSTANT HEAD     =           0.0000         CONSTANT HEAD     =           0.0000
               WELLS     =           0.0000                 WELLS     =           0.0000
     HEAD DEP BOUNDS     =    10624678.0000       HEAD DEP BOUNDS     =           0.2902
      STREAM LEAKAGE     =   407178496.0000        STREAM LEAKAGE     =          12.5247
        UZF RECHARGE     =           0.0000          UZF RECHARGE     =           0.0000
               GW ET     =    84549648.0000                 GW ET     =       1.7500E-02
     SURFACE LEAKAGE     =           0.0000       SURFACE LEAKAGE     =           0.0000
    SUPPLEMENTARY WELLS  =       36673.0352      SUPPLEMENTARY WELLS  =           0.0000

               TOTAL OUT =  1319797120.0000                 TOTAL OUT =          31.4917

                IN - OUT =      133248.0000                  IN - OUT =       2.6989E-03

     PERCENT DISCREPANCY =           0.01         PERCENT DISCREPANCY =           0.01






         TIME SUMMARY AT END OF TIME STEP   30 IN STRESS PERIOD   15
                    SECONDS     MINUTES      HOURS       DAYS        YEARS
                    -----------------------------------------------------------
   TIME STEP LENGTH  87600.      1460.0      24.333      1.0139     2.77588E-03
 STRESS PERIOD TIME 2.62800E+06  43800.      730.00      30.417     8.32763E-02
         TOTAL TIME 3.68784E+07 6.14640E+05  10244.      426.83      1.1686    
1
1
                            STRESS PERIOD NO.   16, LENGTH =   2628000.    
                            -----------------------------------------------

                              NUMBER OF TIME STEPS =    30

                               MULTIPLIER FOR DELT =     1.000

                            INITIAL TIME STEP SIZE =   87600.00    

 WELL NO.  LAYER   ROW   COL   STRESS RATE         
 --------------------------------------------------
      1      1      6      4       0.000    
      2      1      6      7       0.000    
      3      1      7      4       0.000    
      4      1      7      5       0.000    
      5      1      8      4       0.000    
      6      1      8      5       0.000    
      7      1      9      4       0.000    
      8      1      9      5       0.000    
      9      1     10      4       0.000    
     10      1     10      5       0.000    

     10 WELLS

 REUSING NON-PARAMETER GHB CELLS FROM LAST STRESS PERIOD

      2 GHB CELLS

 REUSING STREAM SEGMENT DATA FROM LAST STRESS PERIOD



            AREAL INFILTRATION RATE
 READING ON UNIT   19 WITH FORMAT: (10F4.0)            

            1           2           3           4           5           6           7           8           9          10
 ........................................................................................................................
   1    0.000       0.000       0.000       0.000       0.000       0.000       0.000       0.000       0.000       0.000    
   2    0.000       0.000       0.000       0.000       0.000       0.000       0.000       0.000       0.000       0.000    
   3    0.000       0.000       0.000       0.000       0.000       0.000       0.000       0.000       0.000       0.000    
   4    0.000       0.000       0.000       0.000       0.000       0.000       0.000       0.000       0.000       0.000    
   5    0.000       0.000       0.000       0.000       0.000       0.000       0.000       0.000       0.000       0.000    
   6    0.000       0.000       0.000       0.000       0.000       0.000       0.000       0.000       0.000       0.000    
   7    0.000       0.000       0.000       0.000       0.000       0.000       0.000       0.000       0.000       0.000    
   8    0.000       0.000       0.000       0.000       0.000       0.000       0.000       0.000       0.000       0.000    
   9    0.000       0.000       0.000       0.000       0.000       0.000       0.000       0.000       0.000       0.000    
  10    0.000       0.000       0.000       0.000       0.000       0.000       0.000       0.000       0.000       0.000    
  11    0.000       0.000       0.000       0.000       0.000       0.000       0.000       0.000       0.000       0.000    
  12    0.000       0.000       0.000       0.000       0.000       0.000       0.000       0.000       0.000       0.000    
  13    0.000       0.000       0.000       0.000       0.000       0.000       0.000       0.000       0.000       0.000    
  14    0.000       0.000       0.000       0.000       0.000       0.000       0.000       0.000       0.000       0.000    
  15    0.000       0.000       0.000       0.000       0.000       0.000       0.000       0.000       0.000       0.000    

                  ET RATE =  1.000000E-09

 USING ET EXTINCTION DEPTH FROM PREVIOUS STRESS PERIOD. CURRENT PERIOD IS:      16

 USING EXTINCTION WATER CONTENT FROM PREVIOUS STRESS PERIOD. CURRENT PERIOD IS:      16

 PROCESSING AGO STRESS PERIOD DATA

 READING AGO STRESS PERIOD DATA

 READING IRRIGATION STREAM

 READING IRRIGATION WELL

 READING SUPPLEMENTAL WEL

 END PROCESSING AGO STRESS PERIOD DATA OPTIONS
 
 SOLVING FOR HEAD 
                                                   Max.-Head-Change                         Max.-Flux-Residual
  Residual-Control   Outer-Iter.   Inner-Iter.     Column Row Layer    Maximum-Head-Change  Column Row Layer    Maximum-Flux-Residual          L2-NORM 
          0                 1           2             2    2     1       0.6503179511E-02       2    2    1         0.3389626828E+00      0.1383713358E+01
          0                 2           2            10   10     1       0.1991532180E-02       2    2    1         0.5890014817E-01      0.3208984524E+00
          0                 3           2            10   10     1       0.8948834113E-03      10   10    1         0.2324491111E-01      0.1145827206E+00
          0                 4           2            10   10     1       0.4021101953E-03      10   10    1         0.1044496379E-01      0.4915500180E-01
          0                 5           2            10   10     1       0.1806854613E-03      10   10    1         0.4693377416E-02      0.2186694635E-01
          0                 6           1            10   10     1       0.8118967953E-04      10   10    1         0.2108936546E-02      0.9783811044E-02
          0                 7           1            10   10     1       0.3648194136E-04      10   10    1         0.9476348880E-03      0.4381574418E-02
          0                 8           1            10   10     1       0.1639285329E-04      10   10    1         0.4258121654E-03      0.1962619124E-02
          0                 9           1            10   10     1       0.7365982070E-05      10   10    1         0.1913350711E-03      0.8791765314E-03

    ------------------------------------------------
       NWT REQUIRED            9 OUTER ITERATIONS 
       AND A TOTAL OF         14 INNER ITERATIONS.
    ------------------------------------------------

 NO OUTPUT CONTROL FOR STRESS PERIOD   16   TIME STEP    1
 
 SOLVING FOR HEAD 
                                                   Max.-Head-Change                         Max.-Flux-Residual
  Residual-Control   Outer-Iter.   Inner-Iter.     Column Row Layer    Maximum-Head-Change  Column Row Layer    Maximum-Flux-Residual          L2-NORM 
          0                 1           2             2    2     1       0.6474364312E-02       2    2    1         0.3374438524E+00      0.1373538884E+01
          0                 2           2            10   10     1       0.1990099595E-02       2    2    1         0.5864085715E-01      0.3203378460E+00
          0                 3           2            10   10     1       0.8942386994E-03      10   10    1         0.2322818547E-01      0.1145273253E+00
          0                 4           2            10   10     1       0.4018200555E-03      10   10    1         0.1043743670E-01      0.4913646999E-01
          0                 5           2            10   10     1       0.1805548903E-03      10   10    1         0.4689989999E-02      0.2185875370E-01
          0                 6           1            10   10     1       0.8113091969E-04      10   10    1         0.2107412125E-02      0.9780078712E-02
          0                 7           1            10   10     1       0.3645549862E-04      10   10    1         0.9469488678E-03      0.4379867932E-02
          0                 8           1            10   10     1       0.1638095325E-04      10   10    1         0.4255034387E-03      0.1961838711E-02
          0                 9           1            10   10     1       0.7360626942E-05      10   10    1         0.1911961411E-03      0.8788204443E-03

    ------------------------------------------------
       NWT REQUIRED            9 OUTER ITERATIONS 
       AND A TOTAL OF         14 INNER ITERATIONS.
    ------------------------------------------------

 NO OUTPUT CONTROL FOR STRESS PERIOD   16   TIME STEP    2
 
 SOLVING FOR HEAD 
                                                   Max.-Head-Change                         Max.-Flux-Residual
  Residual-Control   Outer-Iter.   Inner-Iter.     Column Row Layer    Maximum-Head-Change  Column Row Layer    Maximum-Flux-Residual          L2-NORM 
          0                 1           2             2    2     1       0.6446079717E-02       2    2    1         0.3359530341E+00      0.1364446951E+01
          0                 2           2            10   10     1       0.1988667138E-02       2    2    1         0.5838633630E-01      0.3198274589E+00
          0                 3           2            10   10     1       0.8935940539E-03      10   10    1         0.2321146138E-01      0.1144843879E+00
          0                 4           2            10   10     1       0.4015299495E-03      10   10    1         0.1042991040E-01      0.4912369548E-01
          0                 5           2            10   10     1       0.1804243368E-03      10   10    1         0.4686602993E-02      0.2185304678E-01
          0                 6           1            10   10     1       0.8107216861E-04      10   10    1         0.2105887905E-02      0.9777372452E-02
          0                 7           1            10   10     1       0.3642905963E-04      10   10    1         0.9462629423E-03      0.4378587617E-02
          0                 8           1            10   10     1       0.1636905547E-04      10   10    1         0.4251947660E-03      0.1961243747E-02
          0                 9           1            10   10     1       0.7355273065E-05      10   10    1         0.1910572371E-03      0.8785574554E-03

    ------------------------------------------------
       NWT REQUIRED            9 OUTER ITERATIONS 
       AND A TOTAL OF         14 INNER ITERATIONS.
    ------------------------------------------------

 NO OUTPUT CONTROL FOR STRESS PERIOD   16   TIME STEP    3
 
 SOLVING FOR HEAD 
                                                   Max.-Head-Change                         Max.-Flux-Residual
  Residual-Control   Outer-Iter.   Inner-Iter.     Column Row Layer    Maximum-Head-Change  Column Row Layer    Maximum-Flux-Residual          L2-NORM 
          0                 1           2             2    2     1       0.6418401790E-02       2    2    1         0.3344942408E+00      0.1356464848E+01
          0                 2           2            10   10     1       0.1987185406E-02       2    2    1         0.5813726969E-01      0.3193522323E+00
          0                 3           2            10   10     1       0.8929272964E-03      10   10    1         0.2319416228E-01      0.1144370743E+00
          0                 4           2            10   10     1       0.4012299207E-03      10   10    1         0.1042212607E-01      0.4910861079E-01
          0                 5           2            10   10     1       0.1802893307E-03      10   10    1         0.4683100195E-02      0.2184617222E-01
          0                 6           1            10   10     1       0.8101141938E-04      10   10    1         0.2104311725E-02      0.9774141801E-02
          0                 7           1            10   10     1       0.3640172425E-04      10   10    1         0.9455537026E-03      0.4377095931E-02
          0                 8           1            10   10     1       0.1635675551E-04      10   10    1         0.4248756315E-03      0.1960598452E-02
          0                 9           1            10   10     1       0.7349738608E-05      10   10    1         0.1909136383E-03      0.8783702280E-03

    ------------------------------------------------
       NWT REQUIRED            9 OUTER ITERATIONS 
       AND A TOTAL OF         14 INNER ITERATIONS.
    ------------------------------------------------

 NO OUTPUT CONTROL FOR STRESS PERIOD   16   TIME STEP    4
 
 SOLVING FOR HEAD 
                                                   Max.-Head-Change                         Max.-Flux-Residual
  Residual-Control   Outer-Iter.   Inner-Iter.     Column Row Layer    Maximum-Head-Change  Column Row Layer    Maximum-Flux-Residual          L2-NORM 
          0                 1           2             2    2     1       0.6391315947E-02       2    2    1         0.3330667031E+00      0.1349575158E+01
          0                 2           2            10   10     1       0.1985753496E-02       2    2    1         0.5789352615E-01      0.3189231498E+00
          0                 3           2            10   10     1       0.8922829143E-03      10   10    1         0.2317744465E-01      0.1143830325E+00
          0                 4           2            10   10     1       0.4009399413E-03      10   10    1         0.1041460288E-01      0.4908917643E-01
          0                 5           2            10   10     1       0.1801588372E-03      10   10    1         0.4679714673E-02      0.2183743511E-01
          0                 6           1            10   10     1       0.8095269706E-04      10   10    1         0.2102788221E-02      0.9770123147E-02
          0                 7           1            10   10     1       0.3637529901E-04      10   10    1         0.9448681195E-03      0.4375218575E-02
          0                 8           1            10   10     1       0.1634486448E-04      10   10    1         0.4245671201E-03      0.1959675673E-02
          0                 9           1            10   10     1       0.7344387483E-05      10   10    1         0.1907748068E-03      0.8778156592E-03

    ------------------------------------------------
       NWT REQUIRED            9 OUTER ITERATIONS 
       AND A TOTAL OF         14 INNER ITERATIONS.
    ------------------------------------------------

 NO OUTPUT CONTROL FOR STRESS PERIOD   16   TIME STEP    5
 
 SOLVING FOR HEAD 
                                                   Max.-Head-Change                         Max.-Flux-Residual
  Residual-Control   Outer-Iter.   Inner-Iter.     Column Row Layer    Maximum-Head-Change  Column Row Layer    Maximum-Flux-Residual          L2-NORM 
          0                 1           2             2    2     1       0.6364718842E-02       2    2    1         0.3316649858E+00      0.1343759429E+01
          0                 2           2            10   10     1       0.1984321610E-02       2    2    1         0.5765417452E-01      0.3185687032E+00
          0                 3           2            10   10     1       0.8916385039E-03      10   10    1         0.2316072711E-01      0.1143391074E+00
          0                 4           2            10   10     1       0.4006499315E-03      10   10    1         0.1040707929E-01      0.4907350076E-01
          0                 5           2            10   10     1       0.1800283233E-03      10   10    1         0.4676328773E-02      0.2183037881E-01
          0                 6           1            10   10     1       0.8089396149E-04      10   10    1         0.2101264447E-02      0.9766851313E-02
          0                 7           1            10   10     1       0.3634886653E-04      10   10    1         0.9441823797E-03      0.4373695538E-02
          0                 8           1            10   10     1       0.1633296945E-04      10   10    1         0.4242585213E-03      0.1958966094E-02
          0                 9           1            10   10     1       0.7339034606E-05      10   10    1         0.1906359306E-03      0.8774867149E-03

    ------------------------------------------------
       NWT REQUIRED            9 OUTER ITERATIONS 
       AND A TOTAL OF         14 INNER ITERATIONS.
    ------------------------------------------------

 NO OUTPUT CONTROL FOR STRESS PERIOD   16   TIME STEP    6
 
 SOLVING FOR HEAD 
                                                   Max.-Head-Change                         Max.-Flux-Residual
  Residual-Control   Outer-Iter.   Inner-Iter.     Column Row Layer    Maximum-Head-Change  Column Row Layer    Maximum-Flux-Residual          L2-NORM 
          0                 1           2             2    2     1       0.6338687893E-02       2    2    1         0.3302931323E+00      0.1338681090E+01
          0                 2           2            10   10     1       0.1982840555E-02       2    2    1         0.5741991521E-01      0.3182317457E+00
          0                 3           2            10   10     1       0.8909720786E-03      10   10    1         0.2314343606E-01      0.1142864410E+00
          0                 4           2            10   10     1       0.4003500644E-03      10   10    1         0.1039929889E-01      0.4905343494E-01
          0                 5           2            10   10     1       0.1798933951E-03      10   10    1         0.4672827885E-02      0.2182143087E-01
          0                 6           1            10   10     1       0.8083324978E-04      10   10    1         0.2099689192E-02      0.9762777084E-02
          0                 7           1            10   10     1       0.3632154940E-04      10   10    1         0.9434735853E-03      0.4371833795E-02
          0                 8           1            10   10     1       0.1632067774E-04      10   10    1         0.4239395946E-03      0.1958115484E-02
          0                 9           1            10   10     1       0.7333504151E-05      10   10    1         0.1904924314E-03      0.8770998422E-03

    ------------------------------------------------
       NWT REQUIRED            9 OUTER ITERATIONS 
       AND A TOTAL OF         14 INNER ITERATIONS.
    ------------------------------------------------

 NO OUTPUT CONTROL FOR STRESS PERIOD   16   TIME STEP    7
 
 SOLVING FOR HEAD 
                                                   Max.-Head-Change                         Max.-Flux-Residual
  Residual-Control   Outer-Iter.   Inner-Iter.     Column Row Layer    Maximum-Head-Change  Column Row Layer    Maximum-Flux-Residual          L2-NORM 
          0                 1           2             2    2     1       0.6313209689E-02       2    2    1         0.3289504558E+00      0.1334211160E+01
          0                 2           2            10   10     1       0.1981409434E-02       2    2    1         0.5719062549E-01      0.3179232093E+00
          0                 3           2            10   10     1       0.8903280784E-03      10   10    1         0.2312672777E-01      0.1142336496E+00
          0                 4           2            10   10     1       0.4000602687E-03      10   10    1         0.1039178023E-01      0.4903247584E-01
          0                 5           2            10   10     1       0.1797629900E-03      10   10    1         0.4669444538E-02      0.2181190624E-01
          0                 6           1            10   10     1       0.8077456923E-04      10   10    1         0.2098166722E-02      0.9758416197E-02
          0                 7           1            10   10     1       0.3629514393E-04      10   10    1         0.9427884943E-03      0.4369872226E-02
          0                 8           1            10   10     1       0.1630879622E-04      10   10    1         0.4236313193E-03      0.1957189329E-02
          0                 9           1            10   10     1       0.7328157277E-05      10   10    1         0.1903537119E-03      0.8766731963E-03

    ------------------------------------------------
       NWT REQUIRED            9 OUTER ITERATIONS 
       AND A TOTAL OF         14 INNER ITERATIONS.
    ------------------------------------------------

 NO OUTPUT CONTROL FOR STRESS PERIOD   16   TIME STEP    8
 
 SOLVING FOR HEAD 
                                                   Max.-Head-Change                         Max.-Flux-Residual
  Residual-Control   Outer-Iter.   Inner-Iter.     Column Row Layer    Maximum-Head-Change  Column Row Layer    Maximum-Flux-Residual          L2-NORM 
          0                 1           2             2    2     1       0.6288271819E-02       2    2    1         0.3276362587E+00      0.1329988060E+01
          0                 2           2            10   10     1       0.1979978431E-02       2    2    1         0.5696619804E-01      0.3175898137E+00
          0                 3           2            10   10     1       0.8896840890E-03      10   10    1         0.2311002065E-01      0.1141711188E+00
          0                 4           2            10   10     1       0.3997704588E-03      10   10    1         0.1038426159E-01      0.4900802668E-01
          0                 5           2            10   10     1       0.1796325701E-03      10   10    1         0.4666060991E-02      0.2180100631E-01
          0                 6           1            10   10     1       0.8071587817E-04      10   10    1         0.2096644062E-02      0.9753454549E-02
          0                 7           1            10   10     1       0.3626873245E-04      10   10    1         0.9421032744E-03      0.4367574407E-02
          0                 8           1            10   10     1       0.1629691044E-04      10   10    1         0.4233229587E-03      0.1956170054E-02
          0                 9           1            10   10     1       0.7322808652E-05      10   10    1         0.1902149478E-03      0.8762103341E-03

    ------------------------------------------------
       NWT REQUIRED            9 OUTER ITERATIONS 
       AND A TOTAL OF         14 INNER ITERATIONS.
    ------------------------------------------------

 NO OUTPUT CONTROL FOR STRESS PERIOD   16   TIME STEP    9
 
 SOLVING FOR HEAD 
                                                   Max.-Head-Change                         Max.-Flux-Residual
  Residual-Control   Outer-Iter.   Inner-Iter.     Column Row Layer    Maximum-Head-Change  Column Row Layer    Maximum-Flux-Residual          L2-NORM 
          0                 1           2             2    2     1       0.6263771953E-02       2    2    1         0.3263452431E+00      0.1326304744E+01
          0                 2           2            10   10     1       0.1978498130E-02       2    2    1         0.5674570245E-01      0.3173063778E+00
          0                 3           2            10   10     1       0.8890179782E-03      10   10    1         0.2309273828E-01      0.1141232192E+00
          0                 4           2            10   10     1       0.3994707227E-03      10   10    1         0.1037648483E-01      0.4898973158E-01
          0                 5           2            10   10     1       0.1794976957E-03      10   10    1         0.4662561605E-02      0.2179272064E-01
          0                 6           1            10   10     1       0.8065518848E-04      10   10    1         0.2095069425E-02      0.9749624365E-02
          0                 7           1            10   10     1       0.3624142408E-04      10   10    1         0.9413947319E-03      0.4365802551E-02
          0                 8           1            10   10     1       0.1628462273E-04      10   10    1         0.4230041342E-03      0.1955352695E-02
          0                 9           1            10   10     1       0.7317279447E-05      10   10    1         0.1900714847E-03      0.8758375437E-03

    ------------------------------------------------
       NWT REQUIRED            9 OUTER ITERATIONS 
       AND A TOTAL OF         14 INNER ITERATIONS.
    ------------------------------------------------

 NO OUTPUT CONTROL FOR STRESS PERIOD   16   TIME STEP   10
 
 SOLVING FOR HEAD 
                                                   Max.-Head-Change                         Max.-Flux-Residual
  Residual-Control   Outer-Iter.   Inner-Iter.     Column Row Layer    Maximum-Head-Change  Column Row Layer    Maximum-Flux-Residual          L2-NORM 
          0                 1           2             2    2     1       0.6239877870E-02       2    2    1         0.3250861400E+00      0.1322905188E+01
          0                 2           2            10   10     1       0.1977067887E-02       2    2    1         0.5653065973E-01      0.3170308073E+00
          0                 3           2            10   10     1       0.8883743970E-03      10   10    1         0.2307604035E-01      0.1140710439E+00
          0                 4           2            10   10     1       0.3991811261E-03      10   10    1         0.1036897110E-01      0.4896908629E-01
          0                 5           2            10   10     1       0.1793673851E-03      10   10    1         0.4659180609E-02      0.2178334560E-01
          0                 6           1            10   10     1       0.8059655244E-04      10   10    1         0.2093548068E-02      0.9745304444E-02
          0                 7           1            10   10     1       0.3621503986E-04      10   10    1         0.9407101692E-03      0.4363813994E-02
          0                 8           1            10   10     1       0.1627275071E-04      10   10    1         0.4226961052E-03      0.1954438489E-02
          0                 9           1            10   10     1       0.7311937826E-05      10   10    1         0.1899328864E-03      0.8754140379E-03

    ------------------------------------------------
       NWT REQUIRED            9 OUTER ITERATIONS 
       AND A TOTAL OF         14 INNER ITERATIONS.
    ------------------------------------------------

 NO OUTPUT CONTROL FOR STRESS PERIOD   16   TIME STEP   11
 
 SOLVING FOR HEAD 
                                                   Max.-Head-Change                         Max.-Flux-Residual
  Residual-Control   Outer-Iter.   Inner-Iter.     Column Row Layer    Maximum-Head-Change  Column Row Layer    Maximum-Flux-Residual          L2-NORM 
          0                 1           2             2    2     1       0.6216308246E-02       2    2    1         0.3238442200E+00      0.1319964820E+01
          0                 2           2            10   10     1       0.1975588375E-02       2    2    1         0.5631852850E-01      0.3167758880E+00
          0                 3           2            10   10     1       0.8877086577E-03      10   10    1         0.2305876727E-01      0.1140174116E+00
          0                 4           2            10   10     1       0.3988815639E-03      10   10    1         0.1036119870E-01      0.4894730205E-01
          0                 5           2            10   10     1       0.1792325927E-03      10   10    1         0.4655683275E-02      0.2177349291E-01
          0                 6           1            10   10     1       0.8053590102E-04      10   10    1         0.2091974391E-02      0.9740797819E-02
          0                 7           1            10   10     1       0.3618774925E-04      10   10    1         0.9400020779E-03      0.4361750813E-02
          0                 8           1            10   10     1       0.1626047126E-04      10   10    1         0.4223774973E-03      0.1953495387E-02
          0                 9           1            10   10     1       0.7306412623E-05      10   10    1         0.1897895270E-03      0.8749839411E-03

    ------------------------------------------------
       NWT REQUIRED            9 OUTER ITERATIONS 
       AND A TOTAL OF         14 INNER ITERATIONS.
    ------------------------------------------------

 NO OUTPUT CONTROL FOR STRESS PERIOD   16   TIME STEP   12
 
 SOLVING FOR HEAD 
                                                   Max.-Head-Change                         Max.-Flux-Residual
  Residual-Control   Outer-Iter.   Inner-Iter.     Column Row Layer    Maximum-Head-Change  Column Row Layer    Maximum-Flux-Residual          L2-NORM 
          0                 1           2             2    2     1       0.6193321853E-02       2    2    1         0.3226330448E+00      0.1317241957E+01
          0                 2           2            10   10     1       0.1974109309E-02       2    2    1         0.5611164515E-01      0.3165354610E+00
          0                 3           2            10   10     1       0.8870431267E-03      10   10    1         0.2304149942E-01      0.1139668535E+00
          0                 4           2            10   10     1       0.3985820992E-03      10   10    1         0.1035342875E-01      0.4892684328E-01
          0                 5           2            10   10     1       0.1790978457E-03      10   10    1         0.4652187087E-02      0.2176420865E-01
          0                 6           1            10   10     1       0.8047527085E-04      10   10    1         0.2090401250E-02      0.9736530015E-02
          0                 7           1            10   10     1       0.3616046813E-04      10   10    1         0.9392942308E-03      0.4359790335E-02
          0                 8           1            10   10     1       0.1624819656E-04      10   10    1         0.4220590024E-03      0.1952596111E-02
          0                 9           1            10   10     1       0.7300889420E-05      10   10    1         0.1896462184E-03      0.8745769898E-03

    ------------------------------------------------
       NWT REQUIRED            9 OUTER ITERATIONS 
       AND A TOTAL OF         14 INNER ITERATIONS.
    ------------------------------------------------

 NO OUTPUT CONTROL FOR STRESS PERIOD   16   TIME STEP   13
 
 SOLVING FOR HEAD 
                                                   Max.-Head-Change                         Max.-Flux-Residual
  Residual-Control   Outer-Iter.   Inner-Iter.     Column Row Layer    Maximum-Head-Change  Column Row Layer    Maximum-Flux-Residual          L2-NORM 
          0                 1           2             2    2     1       0.6170817152E-02       2    2    1         0.3214472679E+00      0.1314846578E+01
          0                 2           2            10   10     1       0.1972680403E-02       2    2    1         0.5590909537E-01      0.3163205523E+00
          0                 3           2            10   10     1       0.8864001717E-03      10   10    1         0.2302481722E-01      0.1139183108E+00
          0                 4           2            10   10     1       0.3982927960E-03      10   10    1         0.1034592239E-01      0.4890675345E-01
          0                 5           2            10   10     1       0.1789676714E-03      10   10    1         0.4648809530E-02      0.2175506730E-01
          0                 6           1            10   10     1       0.8041669884E-04      10   10    1         0.2088881502E-02      0.9732329097E-02
          0                 7           1            10   10     1       0.3613411368E-04      10   10    1         0.9386104155E-03      0.4357859931E-02
          0                 8           1            10   10     1       0.1623633830E-04      10   10    1         0.4217513193E-03      0.1951709684E-02
          0                 9           1            10   10     1       0.7295554052E-05      10   10    1         0.1895077786E-03      0.8741655419E-03

    ------------------------------------------------
       NWT REQUIRED            9 OUTER ITERATIONS 
       AND A TOTAL OF         14 INNER ITERATIONS.
    ------------------------------------------------

 NO OUTPUT CONTROL FOR STRESS PERIOD   16   TIME STEP   14
 
 SOLVING FOR HEAD 
                                                   Max.-Head-Change                         Max.-Flux-Residual
  Residual-Control   Outer-Iter.   Inner-Iter.     Column Row Layer    Maximum-Head-Change  Column Row Layer    Maximum-Flux-Residual          L2-NORM 
          0                 1           2             2    2     1       0.6148693314E-02       2    2    1         0.3202816345E+00      0.1312508700E+01
          0                 2           2            10   10     1       0.1971202300E-02       2    2    1         0.5570996590E-01      0.3160628036E+00
          0                 3           2            10   10     1       0.8857350895E-03      10   10    1         0.2300756070E-01      0.1138529697E+00
          0                 4           2            10   10     1       0.3979935396E-03      10   10    1         0.1033815771E-01      0.4887990812E-01
          0                 5           2            10   10     1       0.1788330208E-03      10   10    1         0.4645315792E-02      0.2174307050E-01
          0                 6           1            10   10     1       0.8035611294E-04      10   10    1         0.2087309495E-02      0.9726908087E-02
          0                 7           1            10   10     1       0.3610685358E-04      10   10    1         0.9379030978E-03      0.4355405894E-02
          0                 8           1            10   10     1       0.1622407260E-04      10   10    1         0.4214330663E-03      0.1950598917E-02
          0                 9           1            10   10     1       0.7290035351E-05      10   10    1         0.1893645863E-03      0.8736628595E-03

    ------------------------------------------------
       NWT REQUIRED            9 OUTER ITERATIONS 
       AND A TOTAL OF         14 INNER ITERATIONS.
    ------------------------------------------------

 NO OUTPUT CONTROL FOR STRESS PERIOD   16   TIME STEP   15
 
 SOLVING FOR HEAD 
                                                   Max.-Head-Change                         Max.-Flux-Residual
  Residual-Control   Outer-Iter.   Inner-Iter.     Column Row Layer    Maximum-Head-Change  Column Row Layer    Maximum-Flux-Residual          L2-NORM 
          0                 1           2             2    2     1       0.6127030133E-02       2    2    1         0.3191402926E+00      0.1310439260E+01
          0                 2           2            10   10     1       0.1969724723E-02       2    2    1         0.5551498055E-01      0.3158477530E+00
          0                 3           2            10   10     1       0.8850702510E-03      10   10    1         0.2299031036E-01      0.1137989414E+00
          0                 4           2            10   10     1       0.3976943958E-03      10   10    1         0.1033039589E-01      0.4885735686E-01
          0                 5           2            10   10     1       0.1786984226E-03      10   10    1         0.4641823371E-02      0.2173288964E-01
          0                 6           1            10   10     1       0.8029555131E-04      10   10    1         0.2085738091E-02      0.9722268418E-02
          0                 7           1            10   10     1       0.3607960423E-04      10   10    1         0.9371960531E-03      0.4353291123E-02
          0                 8           1            10   10     1       0.1621181216E-04      10   10    1         0.4211149363E-03      0.1949635082E-02
          0                 9           1            10   10     1       0.7284518902E-05      10   10    1         0.1892214457E-03      0.8732265855E-03

    ------------------------------------------------
       NWT REQUIRED            9 OUTER ITERATIONS 
       AND A TOTAL OF         14 INNER ITERATIONS.
    ------------------------------------------------

 NO OUTPUT CONTROL FOR STRESS PERIOD   16   TIME STEP   16
 
 SOLVING FOR HEAD 
                                                   Max.-Head-Change                         Max.-Flux-Residual
  Residual-Control   Outer-Iter.   Inner-Iter.     Column Row Layer    Maximum-Head-Change  Column Row Layer    Maximum-Flux-Residual          L2-NORM 
          0                 1           2             2    2     1       0.6105817187E-02       2    2    1         0.3180227084E+00      0.1308469248E+01
          0                 2           2            10   10     1       0.1968247700E-02       2    2    1         0.5532404401E-01      0.3156248805E+00
          0                 3           2            10   10     1       0.8844056690E-03      10   10    1         0.2297306651E-01      0.1137429671E+00
          0                 4           2            10   10     1       0.3973953715E-03      10   10    1         0.1032263709E-01      0.4883468092E-01
          0                 5           2            10   10     1       0.1785638796E-03      10   10    1         0.4638332358E-02      0.2172275618E-01
          0                 6           1            10   10     1       0.8023501568E-04      10   10    1         0.2084167347E-02      0.9717659344E-02
          0                 7           1            10   10     1       0.3605236714E-04      10   10    1         0.9364893157E-03      0.4351187327E-02
          0                 8           1            10   10     1       0.1619955722E-04      10   10    1         0.4207969513E-03      0.1948676652E-02
          0                 9           1            10   10     1       0.7279005204E-05      10   10    1         0.1890783771E-03      0.8727910159E-03

    ------------------------------------------------
       NWT REQUIRED            9 OUTER ITERATIONS 
       AND A TOTAL OF         14 INNER ITERATIONS.
    ------------------------------------------------

 NO OUTPUT CONTROL FOR STRESS PERIOD   16   TIME STEP   17
 
 SOLVING FOR HEAD 
                                                   Max.-Head-Change                         Max.-Flux-Residual
  Residual-Control   Outer-Iter.   Inner-Iter.     Column Row Layer    Maximum-Head-Change  Column Row Layer    Maximum-Flux-Residual          L2-NORM 
          0                 1           2             2    2     1       0.6084954042E-02       2    2    1         0.3169236268E+00      0.1306656492E+01
          0                 2           2            10   10     1       0.1966771058E-02       2    2    1         0.5513624862E-01      0.3154137752E+00
          0                 3           2            10   10     1       0.8837412167E-03      10   10    1         0.2295582691E-01      0.1136876754E+00
          0                 4           2            10   10     1       0.3970963873E-03      10   10    1         0.1031487971E-01      0.4881148477E-01
          0                 5           2            10   10     1       0.1784293461E-03      10   10    1         0.4634841760E-02      0.2171222020E-01
          0                 6           1            10   10     1       0.8017448030E-04      10   10    1         0.2082596694E-02      0.9712834815E-02
          0                 7           1            10   10     1       0.3602512880E-04      10   10    1         0.9357825830E-03      0.4348982368E-02
          0                 8           1            10   10     1       0.1618730127E-04      10   10    1         0.4204789519E-03      0.1947671424E-02
          0                 9           1            10   10     1       0.7273490506E-05      10   10    1         0.1889352897E-03      0.8723257507E-03

    ------------------------------------------------
       NWT REQUIRED            9 OUTER ITERATIONS 
       AND A TOTAL OF         14 INNER ITERATIONS.
    ------------------------------------------------

 NO OUTPUT CONTROL FOR STRESS PERIOD   16   TIME STEP   18
 
 SOLVING FOR HEAD 
                                                   Max.-Head-Change                         Max.-Flux-Residual
  Residual-Control   Outer-Iter.   Inner-Iter.     Column Row Layer    Maximum-Head-Change  Column Row Layer    Maximum-Flux-Residual          L2-NORM 
          0                 1           2             2    2     1       0.6064611192E-02       2    2    1         0.3158519395E+00      0.1304334021E+01
          0                 2           2            10   10     1       0.1965295046E-02       2    2    1         0.5495313803E-01      0.3151073193E+00
          0                 3           2            10   10     1       0.8830771059E-03      10   10    1         0.2293859495E-01      0.1136198569E+00
          0                 4           2            10   10     1       0.3967975821E-03      10   10    1         0.1030712644E-01      0.4878615384E-01
          0                 5           2            10   10     1       0.1782949047E-03      10   10    1         0.4631353311E-02      0.2170106972E-01
          0                 6           1            10   10     1       0.8011399145E-04      10   10    1         0.2081027140E-02      0.9707780752E-02
          0                 7           1            10   10     1       0.3599791371E-04      10   10    1         0.9350763999E-03      0.4346681318E-02
          0                 8           1            10   10     1       0.1617505659E-04      10   10    1         0.4201612207E-03      0.1946621195E-02
          0                 9           1            10   10     1       0.7267981310E-05      10   10    1         0.1887923350E-03      0.8718506951E-03

    ------------------------------------------------
       NWT REQUIRED            9 OUTER ITERATIONS 
       AND A TOTAL OF         14 INNER ITERATIONS.
    ------------------------------------------------

 NO OUTPUT CONTROL FOR STRESS PERIOD   16   TIME STEP   19
 
 SOLVING FOR HEAD 
                                                   Max.-Head-Change                         Max.-Flux-Residual
  Residual-Control   Outer-Iter.   Inner-Iter.     Column Row Layer    Maximum-Head-Change  Column Row Layer    Maximum-Flux-Residual          L2-NORM 
          0                 1           2             2    2     1       0.6044599328E-02       2    2    1         0.3147977161E+00      0.1302672760E+01
          0                 2           2            10   10     1       0.1963819673E-02       2    2    1         0.5477300407E-01      0.3149033222E+00
          0                 3           2            10   10     1       0.8824132902E-03      10   10    1         0.2292137048E-01      0.1135657101E+00
          0                 4           2            10   10     1       0.3964989133E-03      10   10    1         0.1029937663E-01      0.4876363744E-01
          0                 5           2            10   10     1       0.1781605263E-03      10   10    1         0.4627866467E-02      0.2169089073E-01
          0                 6           1            10   10     1       0.8005353211E-04      10   10    1         0.2079458328E-02      0.9703131212E-02
          0                 7           1            10   10     1       0.3597071164E-04      10   10    1         0.9343705567E-03      0.4344556974E-02
          0                 8           1            10   10     1       0.1616281816E-04      10   10    1         0.4198436525E-03      0.1945651506E-02
          0                 9           1            10   10     1       0.7262475366E-05      10   10    1         0.1886494562E-03      0.8714082356E-03

    ------------------------------------------------
       NWT REQUIRED            9 OUTER ITERATIONS 
       AND A TOTAL OF         14 INNER ITERATIONS.
    ------------------------------------------------

 NO OUTPUT CONTROL FOR STRESS PERIOD   16   TIME STEP   20
 
 SOLVING FOR HEAD 
                                                   Max.-Head-Change                         Max.-Flux-Residual
  Residual-Control   Outer-Iter.   Inner-Iter.     Column Row Layer    Maximum-Head-Change  Column Row Layer    Maximum-Flux-Residual          L2-NORM 
          0                 1           2             2    2     1       0.6024998867E-02       2    2    1         0.3137652458E+00      0.1301254288E+01
          0                 2           2            10   10     1       0.1962344965E-02       2    2    1         0.5459656517E-01      0.3147086919E+00
          0                 3           2            10   10     1       0.8817497811E-03      10   10    1         0.2290415380E-01      0.1135098687E+00
          0                 4           2            10   10     1       0.3962003853E-03      10   10    1         0.1029163041E-01      0.4874007656E-01
          0                 5           2            10   10     1       0.1780262129E-03      10   10    1         0.4624381275E-02      0.2168023677E-01
          0                 6           1            10   10     1       0.7999310228E-04      10   10    1         0.2077890276E-02      0.9698272340E-02
          0                 7           1            10   10     1       0.3594352382E-04      10   10    1         0.9336650699E-03      0.4342340681E-02
          0                 8           1            10   10     1       0.1615058572E-04      10   10    1         0.4195262425E-03      0.1944641219E-02
          0                 9           1            10   10     1       0.7256971922E-05      10   10    1         0.1885066542E-03      0.8709482830E-03

    ------------------------------------------------
       NWT REQUIRED            9 OUTER ITERATIONS 
       AND A TOTAL OF         14 INNER ITERATIONS.
    ------------------------------------------------

 NO OUTPUT CONTROL FOR STRESS PERIOD   16   TIME STEP   21
 
 SOLVING FOR HEAD 
                                                   Max.-Head-Change                         Max.-Flux-Residual
  Residual-Control   Outer-Iter.   Inner-Iter.     Column Row Layer    Maximum-Head-Change  Column Row Layer    Maximum-Flux-Residual          L2-NORM 
          0                 1           2             2    2     1       0.6005800536E-02       2    2    1         0.3127539504E+00      0.1299650457E+01
          0                 2           2            10   10     1       0.1960870746E-02       2    2    1         0.5442374696E-01      0.3144856467E+00
          0                 3           2            10   10     1       0.8810864493E-03      10   10    1         0.2288694265E-01      0.1134408791E+00
          0                 4           2            10   10     1       0.3959019180E-03      10   10    1         0.1028388619E-01      0.4871065508E-01
          0                 5           2            10   10     1       0.1778919178E-03      10   10    1         0.4620896748E-02      0.2166709377E-01
          0                 6           1            10   10     1       0.7993267645E-04      10   10    1         0.2076322416E-02      0.9692366775E-02
          0                 7           1            10   10     1       0.3591633549E-04      10   10    1         0.9329596174E-03      0.4339684776E-02
          0                 8           1            10   10     1       0.1613835279E-04      10   10    1         0.4192088316E-03      0.1943446580E-02
          0                 9           1            10   10     1       0.7251467728E-05      10   10    1         0.1883638365E-03      0.8704101918E-03

    ------------------------------------------------
       NWT REQUIRED            9 OUTER ITERATIONS 
       AND A TOTAL OF         14 INNER ITERATIONS.
    ------------------------------------------------

 NO OUTPUT CONTROL FOR STRESS PERIOD   16   TIME STEP   22
 
 SOLVING FOR HEAD 
                                                   Max.-Head-Change                         Max.-Flux-Residual
  Residual-Control   Outer-Iter.   Inner-Iter.     Column Row Layer    Maximum-Head-Change  Column Row Layer    Maximum-Flux-Residual          L2-NORM 
          0                 1           2             2    2     1       0.5986905882E-02       2    2    1         0.3117587194E+00      0.1298394152E+01
          0                 2           2            10   10     1       0.1959397263E-02       2    2    1         0.5425365557E-01      0.3143070245E+00
          0                 3           2            10   10     1       0.8804235045E-03      10   10    1         0.2286974034E-01      0.1133840495E+00
          0                 4           2            10   10     1       0.3956036498E-03      10   10    1         0.1027614658E-01      0.4868592226E-01
          0                 5           2            10   10     1       0.1777577237E-03      10   10    1         0.4617414593E-02      0.2165589697E-01
          0                 6           1            10   10     1       0.7987230139E-04      10   10    1         0.2074755753E-02      0.9687276591E-02
          0                 7           1            10   10     1       0.3588917243E-04      10   10    1         0.9322547623E-03      0.4337370407E-02
          0                 8           1            10   10     1       0.1612613187E-04      10   10    1         0.4188917091E-03      0.1942394454E-02
          0                 9           1            10   10     1       0.7245969537E-05      10   10    1         0.1882211608E-03      0.8699337955E-03

    ------------------------------------------------
       NWT REQUIRED            9 OUTER ITERATIONS 
       AND A TOTAL OF         14 INNER ITERATIONS.
    ------------------------------------------------

 NO OUTPUT CONTROL FOR STRESS PERIOD   16   TIME STEP   23
 
 SOLVING FOR HEAD 
                                                   Max.-Head-Change                         Max.-Flux-Residual
  Residual-Control   Outer-Iter.   Inner-Iter.     Column Row Layer    Maximum-Head-Change  Column Row Layer    Maximum-Flux-Residual          L2-NORM 
          0                 1           2             2    2     1       0.5968485913E-02       2    2    1         0.3107884969E+00      0.1297096531E+01
          0                 2           2            10   10     1       0.1957924319E-02       2    2    1         0.5408783677E-01      0.3141185126E+00
          0                 3           2            10   10     1       0.8797607603E-03      10   10    1         0.2285254412E-01      0.1133271287E+00
          0                 4           2            10   10     1       0.3953054532E-03      10   10    1         0.1026840924E-01      0.4866168459E-01
          0                 5           2            10   10     1       0.1776235536E-03      10   10    1         0.4613933248E-02      0.2164493399E-01
          0                 6           1            10   10     1       0.7981193359E-04      10   10    1         0.2073189368E-02      0.9682280663E-02
          0                 7           1            10   10     1       0.3586201088E-04      10   10    1         0.9315499930E-03      0.4335093749E-02
          0                 8           1            10   10     1       0.1611391169E-04      10   10    1         0.4185746171E-03      0.1941357710E-02
          0                 9           1            10   10     1       0.7240471096E-05      10   10    1         0.1880784897E-03      0.8694610632E-03

    ------------------------------------------------
       NWT REQUIRED            9 OUTER ITERATIONS 
       AND A TOTAL OF         14 INNER ITERATIONS.
    ------------------------------------------------

 NO OUTPUT CONTROL FOR STRESS PERIOD   16   TIME STEP   24
 
 SOLVING FOR HEAD 
                                                   Max.-Head-Change                         Max.-Flux-Residual
  Residual-Control   Outer-Iter.   Inner-Iter.     Column Row Layer    Maximum-Head-Change  Column Row Layer    Maximum-Flux-Residual          L2-NORM 
          0                 1           2             2    2     1       0.5950351843E-02       2    2    1         0.3098333797E+00      0.1295890196E+01
          0                 2           2            10   10     1       0.1956451961E-02       2    2    1         0.5392458702E-01      0.3139332434E+00
          0                 3           2            10   10     1       0.8790982876E-03      10   10    1         0.2283535479E-01      0.1132690774E+00
          0                 4           2            10   10     1       0.3950073828E-03      10   10    1         0.1026067508E-01      0.4863671303E-01
          0                 5           2            10   10     1       0.1774894416E-03      10   10    1         0.4610453369E-02      0.2163360525E-01
          0                 6           1            10   10     1       0.7975159280E-04      10   10    1         0.2071623657E-02      0.9677114567E-02
          0                 7           1            10   10     1       0.3583486207E-04      10   10    1         0.9308455322E-03      0.4332741030E-02
          0                 8           1            10   10     1       0.1610169652E-04      10   10    1         0.4182576591E-03      0.1940287497E-02
          0                 9           1            10   10     1       0.7234975406E-05      10   10    1         0.1879358843E-03      0.8689749221E-03

    ------------------------------------------------
       NWT REQUIRED            9 OUTER ITERATIONS 
       AND A TOTAL OF         14 INNER ITERATIONS.
    ------------------------------------------------

 NO OUTPUT CONTROL FOR STRESS PERIOD   16   TIME STEP   25
 
 SOLVING FOR HEAD 
                                                   Max.-Head-Change                         Max.-Flux-Residual
  Residual-Control   Outer-Iter.   Inner-Iter.     Column Row Layer    Maximum-Head-Change  Column Row Layer    Maximum-Flux-Residual          L2-NORM 
          0                 1           2             2    2     1       0.5932585570E-02       2    2    1         0.3088976876E+00      0.1294839265E+01
          0                 2           2            10   10     1       0.1954980419E-02       2    2    1         0.5376464302E-01      0.3137673713E+00
          0                 3           2            10   10     1       0.8784362387E-03      10   10    1         0.2281817525E-01      0.1132123100E+00
          0                 4           2            10   10     1       0.3947095273E-03      10   10    1         0.1025294598E-01      0.4861171678E-01
          0                 5           2            10   10     1       0.1773554381E-03      10   10    1         0.4606976063E-02      0.2162224982E-01
          0                 6           1            10   10     1       0.7969130529E-04      10   10    1         0.2070059228E-02      0.9671942336E-02
          0                 7           1            10   10     1       0.3580773903E-04      10   10    1         0.9301417058E-03      0.4330386615E-02
          0                 8           1            10   10     1       0.1608949435E-04      10   10    1         0.4179410168E-03      0.1939218015E-02
          0                 9           1            10   10     1       0.7229485969E-05      10   10    1         0.1877934325E-03      0.8684902642E-03

    ------------------------------------------------
       NWT REQUIRED            9 OUTER ITERATIONS 
       AND A TOTAL OF         14 INNER ITERATIONS.
    ------------------------------------------------

 NO OUTPUT CONTROL FOR STRESS PERIOD   16   TIME STEP   26
 
 SOLVING FOR HEAD 
                                                   Max.-Head-Change                         Max.-Flux-Residual
  Residual-Control   Outer-Iter.   Inner-Iter.     Column Row Layer    Maximum-Head-Change  Column Row Layer    Maximum-Flux-Residual          L2-NORM 
          0                 1           2             2    2     1       0.5915179013E-02       2    2    1         0.3079809327E+00      0.1293913573E+01
          0                 2           2            10   10     1       0.1953459947E-02       2    2    1         0.5360793818E-01      0.3136137136E+00
          0                 3           2            10   10     1       0.8777521820E-03      10   10    1         0.2280042451E-01      0.1131577843E+00
          0                 4           2            10   10     1       0.3944017745E-03      10   10    1         0.1024495998E-01      0.4858763333E-01
          0                 5           2            10   10     1       0.1772169824E-03      10   10    1         0.4603383208E-02      0.2161132349E-01
          0                 6           1            10   10     1       0.7962901588E-04      10   10    1         0.2068442840E-02      0.9666970317E-02
          0                 7           1            10   10     1       0.3577971634E-04      10   10    1         0.9294145156E-03      0.4328124098E-02
          0                 8           1            10   10     1       0.1607688700E-04      10   10    1         0.4176138616E-03      0.1938188405E-02
          0                 9           1            10   10     1       0.7223814201E-05      10   10    1         0.1876462521E-03      0.8680210815E-03

    ------------------------------------------------
       NWT REQUIRED            9 OUTER ITERATIONS 
       AND A TOTAL OF         14 INNER ITERATIONS.
    ------------------------------------------------

 NO OUTPUT CONTROL FOR STRESS PERIOD   16   TIME STEP   27
 
 SOLVING FOR HEAD 
                                                   Max.-Head-Change                         Max.-Flux-Residual
  Residual-Control   Outer-Iter.   Inner-Iter.     Column Row Layer    Maximum-Head-Change  Column Row Layer    Maximum-Flux-Residual          L2-NORM 
          0                 1           2             2    2     1       0.5898034779E-02       2    2    1         0.3070780552E+00      0.1292720273E+01
          0                 2           2            10   10     1       0.1951989880E-02       2    2    1         0.5345358877E-01      0.3134138430E+00
          0                 3           2            10   10     1       0.8770907611E-03      10   10    1         0.2278326201E-01      0.1130958974E+00
          0                 4           2            10   10     1       0.3941041866E-03      10   10    1         0.1023723815E-01      0.4856173921E-01
          0                 5           2            10   10     1       0.1770830919E-03      10   10    1         0.4599908989E-02      0.2159977539E-01
          0                 6           1            10   10     1       0.7956877639E-04      10   10    1         0.2066879723E-02      0.9661756814E-02
          0                 7           1            10   10     1       0.3575261356E-04      10   10    1         0.9287112449E-03      0.4325762120E-02
          0                 8           1            10   10     1       0.1606469384E-04      10   10    1         0.4172974573E-03      0.1937117671E-02
          0                 9           1            10   10     1       0.7218328015E-05      10   10    1         0.1875038943E-03      0.8675355799E-03

    ------------------------------------------------
       NWT REQUIRED            9 OUTER ITERATIONS 
       AND A TOTAL OF         14 INNER ITERATIONS.
    ------------------------------------------------

 NO OUTPUT CONTROL FOR STRESS PERIOD   16   TIME STEP   28
 
 SOLVING FOR HEAD 
                                                   Max.-Head-Change                         Max.-Flux-Residual
  Residual-Control   Outer-Iter.   Inner-Iter.     Column Row Layer    Maximum-Head-Change  Column Row Layer    Maximum-Flux-Residual          L2-NORM 
          0                 1           2             5   13     1       0.8130273945E-02       5   13    1         0.4663092667E+00      0.1622282594E+01
          0                 2           2            10   10     1       0.1950470955E-02       2    2    1         0.7198727006E-01      0.3369082703E+00
          0                 3           2            10   10     1       0.8764074200E-03      10   10    1         0.2276552941E-01      0.1145268489E+00
          0                 4           2            10   10     1       0.3937967644E-03      10   10    1         0.1022926053E-01      0.4866281711E-01
          0                 5           2            10   10     1       0.1769447895E-03      10   10    1         0.4596320013E-02      0.2161138786E-01
          0                 6           1            10   10     1       0.7950655801E-04      10   10    1         0.2065265131E-02      0.9664585228E-02
          0                 7           1            10   10     1       0.3572462363E-04      10   10    1         0.9279848837E-03      0.4326794934E-02
          0                 8           1            10   10     1       0.1605210150E-04      10   10    1         0.4169706862E-03      0.1937532369E-02
          0                 9           1            10   10     1       0.7212663500E-05      10   10    1         0.1873568976E-03      0.8677091426E-03

    ------------------------------------------------
       NWT REQUIRED            9 OUTER ITERATIONS 
       AND A TOTAL OF         14 INNER ITERATIONS.
    ------------------------------------------------

 NO OUTPUT CONTROL FOR STRESS PERIOD   16   TIME STEP   29
 
 SOLVING FOR HEAD 
                                                   Max.-Head-Change                         Max.-Flux-Residual
  Residual-Control   Outer-Iter.   Inner-Iter.     Column Row Layer    Maximum-Head-Change  Column Row Layer    Maximum-Flux-Residual          L2-NORM 
          0                 1           2             2   13     1       0.2838555152E-01       2   13    1         0.1613664333E+01      0.3475628293E+01
          0                 2           2             7   13     1      -0.5127626931E-02       7   13    1        -0.2792853030E+00      0.5437586807E+00
          0                 3           2            10   10     1       0.8757467804E-03       7   13    1         0.2512522898E-01      0.1237597421E+00
          0                 4           2            10   10     1       0.3934995486E-03      10   10    1         0.1022154791E-01      0.4914785129E-01
          0                 5           2            10   10     1       0.1768110776E-03      10   10    1         0.4592850187E-02      0.2168124235E-01
          0                 6           1            10   10     1       0.7944640456E-04      10   10    1         0.2063704123E-02      0.9687064724E-02
          0                 7           1            10   10     1       0.3569756261E-04      10   10    1         0.9272826311E-03      0.4335996924E-02
          0                 8           1            10   10     1       0.1603992809E-04      10   10    1         0.4166547690E-03      0.1941468782E-02
          0                 9           1            10   10     1       0.7207187069E-05      10   10    1         0.1872147785E-03      0.8694008050E-03

    ------------------------------------------------
       NWT REQUIRED            9 OUTER ITERATIONS 
       AND A TOTAL OF         14 INNER ITERATIONS.
    ------------------------------------------------

 NO OUTPUT CONTROL FOR STRESS PERIOD   16   TIME STEP   30



 STREAM LISTING     PERIOD     16   STEP       30

 LAYER ROW COL. STREAM  RCH.  FLOW INTO     FLOW TO   FLOW OUT OF   OVRLND.     DIRECT     STREAM       STREAM     STREAM     STREAM   STREAMBED  STREAMBED
                SEG.NO.  NO.  STRM. RCH.    AQUIFER    STRM. RCH.    RUNOFF     PRECIP       ET          HEAD       DEPTH      WIDTH   CONDCTNC.   GRADIENT

   1    1    1     1     1    9.8000E+01  4.7086E-01   9.7529E+01  0.000E+00  0.000E+00  0.000E+00  1.09484E+03  1.792E+00  2.184E+01  9.826E-02  1.597E+00
   1    2    2     1     2    9.7529E+01  7.3062E-01   9.6799E+01  0.000E+00  0.000E+00  0.000E+00  1.08985E+03  1.790E+00  2.179E+01  1.525E-01  1.597E+00
   1    3    3     1     3    9.6799E+01  6.2447E-01   9.6174E+01  0.000E+00  0.000E+00  0.000E+00  1.08421E+03  1.787E+00  2.174E+01  1.304E-01  1.596E+00
   1    3    4     1     4    9.6174E+01  5.7618E-01   9.5598E+01  0.000E+00  0.000E+00  0.000E+00  1.07919E+03  1.785E+00  2.170E+01  1.204E-01  1.595E+00
   1    4    5     2     1    9.3598E+01  4.4167E-01   9.3156E+01  0.000E+00  0.000E+00  0.000E+00  1.07460E+03  2.662E+00  1.200E+01  7.800E-02  1.887E+00
   1    5    6     2     2    9.3156E+01  3.3935E-01   9.2817E+01  0.000E+00  0.000E+00  0.000E+00  1.06917E+03  2.656E+00  1.200E+01  6.000E-02  1.885E+00
   1    6    6     2     3    9.2817E+01  3.3900E-01   9.2478E+01  0.000E+00  0.000E+00  0.000E+00  1.06444E+03  2.650E+00  1.200E+01  6.000E-02  1.883E+00
   1    7    6     2     4    9.2478E+01  3.3865E-01   9.2139E+01  0.000E+00  0.000E+00  0.000E+00  1.05972E+03  2.644E+00  1.200E+01  6.000E-02  1.881E+00
   1    8    6     2     5    9.2139E+01  3.3830E-01   9.1801E+01  0.000E+00  0.000E+00  0.000E+00  1.05500E+03  2.638E+00  1.200E+01  6.000E-02  1.879E+00
   1    3    5     3     1    2.0000E+00  2.8252E-01   1.7175E+00  0.000E+00  0.000E+00  0.000E+00  1.07555E+03  1.909E+00  9.636E+00  7.227E-02  1.955E+00
   1    3    6     3     2    1.7175E+00  2.4905E-01   1.4684E+00  0.000E+00  0.000E+00  0.000E+00  1.07264E+03  1.727E+00  8.909E+00  6.682E-02  1.864E+00
   1    3    7     3     3    1.4684E+00  1.9718E-01   1.2712E+00  0.000E+00  0.000E+00  0.000E+00  1.06987E+03  1.555E+00  8.218E+00  5.547E-02  1.777E+00
   1    4    8     3     4    1.2712E+00  2.2567E-01   1.0456E+00  0.000E+00  0.000E+00  0.000E+00  1.06682E+03  1.364E+00  7.455E+00  6.709E-02  1.682E+00
   1    5    8     3     5    1.0456E+00  1.5790E-01   8.8768E-01  0.000E+00  0.000E+00  0.000E+00  1.06362E+03  1.164E+00  6.655E+00  4.991E-02  1.582E+00
   1    6    8     3     6    8.8768E-01  5.5980E-02   8.3170E-01  0.000E+00  0.000E+00  0.000E+00  1.06158E+03  1.036E+00  6.145E+00  1.844E-02  1.518E+00
   1    5   10     4     1    1.0000E+01  9.0919E-02   9.9091E+00  0.000E+00  0.000E+00  0.000E+00  1.07836E+03  6.368E-01  1.000E+01  2.500E-02  1.212E+00
   1    5    9     4     2    9.9091E+00  1.8158E-01   9.7275E+00  0.000E+00  0.000E+00  0.000E+00  1.07154E+03  6.315E-01  1.000E+01  5.000E-02  1.211E+00
   1    6    8     4     3    9.7275E+00  1.2689E-01   9.6006E+00  0.000E+00  0.000E+00  0.000E+00  1.06381E+03  6.256E-01  1.000E+01  3.500E-02  1.209E+00
   1    6    8     5     1    1.0432E+01  2.2686E-01   1.0205E+01  0.000E+00  0.000E+00  0.000E+00  1.05868E+03  6.790E-01  1.542E+01  6.166E-02  1.226E+00
   1    7    7     5     2    1.0205E+01  2.7894E-01   9.9265E+00  0.000E+00  0.000E+00  0.000E+00  1.05417E+03  6.732E-01  1.519E+01  7.594E-02  1.224E+00
   1    8    7     5     3    9.9265E+00  1.9221E-01   9.7343E+00  0.000E+00  0.000E+00  0.000E+00  1.04992E+03  6.676E-01  1.497E+01  5.241E-02  1.223E+00
   1    8    6     5     4    9.7343E+00  1.3577E-01   9.5985E+00  0.000E+00  0.000E+00  0.000E+00  1.04691E+03  6.637E-01  1.482E+01  3.706E-02  1.221E+00
   1    9    6     6     1    1.0140E+02  3.4955E-01   1.0105E+02  0.000E+00  0.000E+00  0.000E+00  1.04555E+03  2.826E+00  1.200E+01  6.000E-02  1.942E+00
   1   10    7     6     2    1.0105E+02  3.4920E-01   1.0070E+02  0.000E+00  0.000E+00  0.000E+00  1.04100E+03  2.820E+00  1.200E+01  6.000E-02  1.940E+00
   1   11    7     6     3    1.0070E+02  3.4885E-01   1.0035E+02  0.000E+00  0.000E+00  0.000E+00  1.03645E+03  2.814E+00  1.200E+01  6.000E-02  1.938E+00
   1   12    7     6     4    1.0035E+02  3.4849E-01   1.0000E+02  0.000E+00  0.000E+00  0.000E+00  1.03190E+03  2.808E+00  1.200E+01  6.000E-02  1.936E+00
   1   13    7     6     5    1.0000E+02  2.6227E-02   9.9977E+01  0.000E+00  0.000E+00  0.000E+00  1.02871E+03  2.805E+00  1.200E+01  2.400E-02  3.643E-01
   1   14    9     7     1    1.5000E+02  1.1504E+00   1.4885E+02  0.000E+00  0.000E+00  0.000E+00  1.03987E+03  2.288E+00  5.530E+01  5.593E-01  6.856E-01
   1   13    8     7     2    1.4885E+02  1.5609E+00   1.4729E+02  0.000E+00  0.000E+00  0.000E+00  1.03478E+03  2.281E+00  5.526E+01  6.149E-01  8.462E-01
   1   13    7     7     3    1.4729E+02  1.1573E+00   1.4613E+02  0.000E+00  0.000E+00  0.000E+00  1.02969E+03  2.274E+00  5.523E+01  5.586E-01  6.906E-01
   1   13    6     8     1    2.4611E+02  9.3151E-01   2.4518E+02  0.000E+00  0.000E+00  0.000E+00  1.02526E+03  3.389E+00  4.914E+01  5.008E-01  6.200E-01
   1   13    5     8     2    2.4518E+02  1.5129E-01   2.4503E+02  0.000E+00  0.000E+00  0.000E+00  1.01901E+03  3.386E+00  4.910E+01  5.004E-01  1.008E-01
   1   13    4     8     3    2.4503E+02 -1.9821E+00   2.4701E+02  0.000E+00  0.000E+00  0.000E+00  1.01277E+03  3.391E+00  4.917E+01  5.011E+00 -1.319E-01
   1   13    3     8     4    2.4701E+02 -2.9730E+00   2.4998E+02  0.000E+00  0.000E+00  0.000E+00  1.00653E+03  3.404E+00  4.936E+01  5.030E+00 -1.970E-01
   1   13    2     8     5    2.4998E+02 -1.3274E+00   2.5131E+02  0.000E+00  0.000E+00  0.000E+00  1.00029E+03  3.415E+00  4.952E+01  5.046E+00 -8.769E-02
   1   13    1     8     6    2.5131E+02 -1.1834E+00   2.5249E+02  0.000E+00  0.000E+00  0.000E+00  9.95296E+02  3.421E+00  4.961E+01  3.033E+00 -1.300E-01
   1    6    8     9     1    0.0000E+00  0.0000E+00   0.0000E+00  0.000E+00  0.000E+00  0.000E+00  1.07850E+03  0.000E+00  4.000E+00  0.000E+00  1.000E+00





UNSATURATED ZONE PACKAGE VOLUMETRIC BUDGET FOR  TIME STEP    30 STRESS PERIOD   16
  ------------------------------------------------------------------------------



     CUMULATIVE VOLUMES      L**3       RATES FOR THIS TIME STEP      L**3/T
     ------------------                 ------------------------

           IN:                                      IN:
           ---                                      ---
        INFILTRATION =    17787597.4070          INFILTRATION =       0.0000E+00

          OUT:                                     OUT:
          ----                                     ----
              UZF ET =   544908199.8558                UZF ET =       0.0000E+00
        UZF RECHARGE =   929282233.5968          UZF RECHARGE =          21.3310

            IN - OUT = -1456402836.0455              IN - OUT =         -21.3310

          STORAGE:                                 STORAGE:
          --------                                 --------
      STORAGE CHANGE = -1456376982.2908        STORAGE CHANGE =         -21.3310

 PERCENT DISCREPANCY IS DIFFERENCE BETWEEN IN-OUT MINUS CHANGE IN STORAGE
 DIVIDED BY THE AVERAGE OF IN AND OUT TIMES 100

 PERCENT DISCREPANCY =          -0.00     PERCENT DISCREPANCY =           0.00






1
  VOLUMETRIC BUDGET FOR ENTIRE MODEL AT END OF TIME STEP   30, STRESS PERIOD  16
  ------------------------------------------------------------------------------

     CUMULATIVE VOLUMES      L**3       RATES FOR THIS TIME STEP      L**3/T
     ------------------                 ------------------------

           IN:                                      IN:
           ---                                      ---
             STORAGE     =    32955116.0000               STORAGE     =       2.7050E-02
       CONSTANT HEAD     =           0.0000         CONSTANT HEAD     =           0.0000
               WELLS     =           0.0000                 WELLS     =           0.0000
     HEAD DEP BOUNDS     =    10857051.0000       HEAD DEP BOUNDS     =           0.2731
      STREAM LEAKAGE     =   429713440.0000        STREAM LEAKAGE     =          12.9743
        UZF RECHARGE     =   929282304.0000          UZF RECHARGE     =          21.3310
               GW ET     =           0.0000                 GW ET     =           0.0000
     SURFACE LEAKAGE     =           0.0000       SURFACE LEAKAGE     =           0.0000
    SUPPLEMENTARY WELLS  =           0.0000      SUPPLEMENTARY WELLS  =           0.0000

                TOTAL IN =  1402807936.0000                  TOTAL IN =          34.6055

          OUT:                                     OUT:
          ----                                     ----
             STORAGE     =   865722880.0000               STORAGE     =          26.6699
       CONSTANT HEAD     =           0.0000         CONSTANT HEAD     =           0.0000
               WELLS     =           0.0000                 WELLS     =           0.0000
     HEAD DEP BOUNDS     =    11389296.0000       HEAD DEP BOUNDS     =           0.2921
      STREAM LEAKAGE     =   440508832.0000        STREAM LEAKAGE     =           7.4658
        UZF RECHARGE     =           0.0000          UZF RECHARGE     =           0.0000
               GW ET     =    85009488.0000                 GW ET     =           0.1750
     SURFACE LEAKAGE     =           0.0000       SURFACE LEAKAGE     =           0.0000
    SUPPLEMENTARY WELLS  =       36673.0352      SUPPLEMENTARY WELLS  =           0.0000

               TOTAL OUT =  1402667264.0000                 TOTAL OUT =          34.6028

                IN - OUT =      140672.0000                  IN - OUT =       2.6703E-03

     PERCENT DISCREPANCY =           0.01         PERCENT DISCREPANCY =           0.01






         TIME SUMMARY AT END OF TIME STEP   30 IN STRESS PERIOD   16
                    SECONDS     MINUTES      HOURS       DAYS        YEARS
                    -----------------------------------------------------------
   TIME STEP LENGTH  87600.      1460.0      24.333      1.0139     2.77588E-03
 STRESS PERIOD TIME 2.62800E+06  43800.      730.00      30.417     8.32763E-02
         TOTAL TIME 3.95064E+07 6.58440E+05  10974.      457.25      1.2519    
1
1
                            STRESS PERIOD NO.   17, LENGTH =   2628000.    
                            -----------------------------------------------

                              NUMBER OF TIME STEPS =    30

                               MULTIPLIER FOR DELT =     1.000

                            INITIAL TIME STEP SIZE =   87600.00    

 WELL NO.  LAYER   ROW   COL   STRESS RATE         
 --------------------------------------------------
      1      1      6      4       0.000    
      2      1      6      7       0.000    
      3      1      7      4       0.000    
      4      1      7      5       0.000    
      5      1      8      4       0.000    
      6      1      8      5       0.000    
      7      1      9      4       0.000    
      8      1      9      5       0.000    
      9      1     10      4       0.000    
     10      1     10      5       0.000    

     10 WELLS

 REUSING NON-PARAMETER GHB CELLS FROM LAST STRESS PERIOD

      2 GHB CELLS

 REUSING STREAM SEGMENT DATA FROM LAST STRESS PERIOD



            AREAL INFILTRATION RATE
 READING ON UNIT   19 WITH FORMAT: (10F4.0)            

            1           2           3           4           5           6           7           8           9          10
 ........................................................................................................................
   1    0.000       0.000       0.000       0.000       0.000       0.000       0.000       0.000       0.000       0.000    
   2    0.000       0.000       0.000       0.000       0.000       0.000       0.000       0.000       0.000       0.000    
   3    0.000       0.000       0.000       0.000       0.000       0.000       0.000       0.000       0.000       0.000    
   4    0.000       0.000       0.000       0.000       0.000       0.000       0.000       0.000       0.000       0.000    
   5    0.000       0.000       0.000       0.000       0.000       0.000       0.000       0.000       0.000       0.000    
   6    0.000       0.000       0.000       0.000       0.000       0.000       0.000       0.000       0.000       0.000    
   7    0.000       0.000       0.000       0.000       0.000       0.000       0.000       0.000       0.000       0.000    
   8    0.000       0.000       0.000       0.000       0.000       0.000       0.000       0.000       0.000       0.000    
   9    0.000       0.000       0.000       0.000       0.000       0.000       0.000       0.000       0.000       0.000    
  10    0.000       0.000       0.000       0.000       0.000       0.000       0.000       0.000       0.000       0.000    
  11    0.000       0.000       0.000       0.000       0.000       0.000       0.000       0.000       0.000       0.000    
  12    0.000       0.000       0.000       0.000       0.000       0.000       0.000       0.000       0.000       0.000    
  13    0.000       0.000       0.000       0.000       0.000       0.000       0.000       0.000       0.000       0.000    
  14    0.000       0.000       0.000       0.000       0.000       0.000       0.000       0.000       0.000       0.000    
  15    0.000       0.000       0.000       0.000       0.000       0.000       0.000       0.000       0.000       0.000    

                  ET RATE =  5.000000E-09

 USING ET EXTINCTION DEPTH FROM PREVIOUS STRESS PERIOD. CURRENT PERIOD IS:      17

 USING EXTINCTION WATER CONTENT FROM PREVIOUS STRESS PERIOD. CURRENT PERIOD IS:      17

 PROCESSING AGO STRESS PERIOD DATA

 READING AGO STRESS PERIOD DATA

 READING IRRIGATION STREAM

 READING IRRIGATION WELL

 READING SUPPLEMENTAL WEL

 END PROCESSING AGO STRESS PERIOD DATA OPTIONS
 
 SOLVING FOR HEAD 
                                                   Max.-Head-Change                         Max.-Flux-Residual
  Residual-Control   Outer-Iter.   Inner-Iter.     Column Row Layer    Maximum-Head-Change  Column Row Layer    Maximum-Flux-Residual          L2-NORM 
          0                 1           2             2   13     1       0.2437495180E-01       2   13    1         0.1385902485E+01      0.3068233586E+01
          0                 2           2             4   13     1      -0.2296883016E-02       4   13    1        -0.1340728461E+00      0.4471131875E+00
          0                 3           2            10   10     1       0.8750642844E-03      10   10    1         0.2273067482E-01      0.1207681977E+00
          0                 4           2            10   10     1       0.3931925271E-03      10   10    1         0.1021358024E-01      0.4917766531E-01
          0                 5           2            10   10     1       0.1766729661E-03      10   10    1         0.4589265939E-02      0.2171679422E-01
          0                 6           1            10   10     1       0.7938427672E-04      10   10    1         0.2062091775E-02      0.9702781797E-02
          0                 7           1            10   10     1       0.3566961571E-04      10   10    1         0.9265573401E-03      0.4342798534E-02
          0                 8           1            10   10     1       0.1602735701E-04      10   10    1         0.4163285126E-03      0.1944410671E-02
          0                 9           1            10   10     1       0.7201532558E-05      10   10    1         0.1870680198E-03      0.8706739885E-03

    ------------------------------------------------
       NWT REQUIRED            9 OUTER ITERATIONS 
       AND A TOTAL OF         14 INNER ITERATIONS.
    ------------------------------------------------

 NO OUTPUT CONTROL FOR STRESS PERIOD   17   TIME STEP    1
 
 SOLVING FOR HEAD 
                                                   Max.-Head-Change                         Max.-Flux-Residual
  Residual-Control   Outer-Iter.   Inner-Iter.     Column Row Layer    Maximum-Head-Change  Column Row Layer    Maximum-Flux-Residual          L2-NORM 
          0                 1           2             2   13     1       0.2236906058E-01       2   13    1         0.1271718216E+01      0.2905076727E+01
          0                 2           2             2    2     1       0.2246864576E-02       2   13    1        -0.1209820572E+00      0.4366294958E+00
          0                 3           2            10   10     1       0.8744045455E-03      10   10    1         0.2271355448E-01      0.1206048189E+00
          0                 4           2            10   10     1       0.3928957293E-03      10   10    1         0.1020587820E-01      0.4925542703E-01
          0                 5           2            10   10     1       0.1765394473E-03      10   10    1         0.4585801019E-02      0.2175426089E-01
          0                 6           1            10   10     1       0.7932421230E-04      10   10    1         0.2060533035E-02      0.9719101457E-02
          0                 7           1            10   10     1       0.3564259546E-04      10   10    1         0.9258561293E-03      0.4349853514E-02
          0                 8           1            10   10     1       0.1601520212E-04      10   10    1         0.4160130736E-03      0.1947460919E-02
          0                 9           1            10   10     1       0.7196064881E-05      10   10    1         0.1869261230E-03      0.8719970398E-03

    ------------------------------------------------
       NWT REQUIRED            9 OUTER ITERATIONS 
       AND A TOTAL OF         14 INNER ITERATIONS.
    ------------------------------------------------

 NO OUTPUT CONTROL FOR STRESS PERIOD   17   TIME STEP    2
 
 SOLVING FOR HEAD 
                                                   Max.-Head-Change                         Max.-Flux-Residual
  Residual-Control   Outer-Iter.   Inner-Iter.     Column Row Layer    Maximum-Head-Change  Column Row Layer    Maximum-Flux-Residual          L2-NORM 
          0                 1           2             2   13     1       0.2052978951E-01       2   13    1         0.1167024707E+01      0.2760931080E+01
          0                 2           2             2    2     1       0.2231930658E-02       2    2    1         0.1164071217E+00      0.4275714277E+00
          0                 3           2            10   10     1       0.8737229959E-03      10   10    1         0.2269586683E-01      0.1204757687E+00
          0                 4           2            10   10     1       0.3925891472E-03      10   10    1         0.1019792165E-01      0.4932879713E-01
          0                 5           2            10   10     1       0.1764015391E-03      10   10    1         0.4582221930E-02      0.2178951618E-01
          0                 6           1            10   10     1       0.7926217851E-04      10   10    1         0.2058923077E-02      0.9734464705E-02
          0                 7           1            10   10     1       0.3561469207E-04      10   10    1         0.9251319418E-03      0.4356498412E-02
          0                 8           1            10   10     1       0.1600265104E-04      10   10    1         0.4156873252E-03      0.1950334543E-02
          0                 9           1            10   10     1       0.7190419374E-05      10   10    1         0.1867795968E-03      0.8732373991E-03

    ------------------------------------------------
       NWT REQUIRED            9 OUTER ITERATIONS 
       AND A TOTAL OF         14 INNER ITERATIONS.
    ------------------------------------------------

 NO OUTPUT CONTROL FOR STRESS PERIOD   17   TIME STEP    3
 
 SOLVING FOR HEAD 
                                                   Max.-Head-Change                         Max.-Flux-Residual
  Residual-Control   Outer-Iter.   Inner-Iter.     Column Row Layer    Maximum-Head-Change  Column Row Layer    Maximum-Flux-Residual          L2-NORM 
          0                 1           2             2   13     1       0.1884322140E-01       2   13    1         0.1071025874E+01      0.2634128597E+01
          0                 2           2             2    2     1       0.2217271904E-02       2    2    1         0.1156334835E+00      0.4197642034E+00
          0                 3           2            10   10     1       0.8730641169E-03      10   10    1         0.2267876922E-01      0.1203709160E+00
          0                 4           2            10   10     1       0.3922927278E-03      10   10    1         0.1019022961E-01      0.4939980242E-01
          0                 5           2            10   10     1       0.1762681861E-03      10   10    1         0.4578761399E-02      0.2182401995E-01
          0                 6           1            10   10     1       0.7920218663E-04      10   10    1         0.2057366260E-02      0.9749557928E-02
          0                 7           1            10   10     1       0.3558770359E-04      10   10    1         0.9244315749E-03      0.4363031449E-02
          0                 8           1            10   10     1       0.1599050990E-04      10   10    1         0.4153722550E-03      0.1953159385E-02
          0                 9           1            10   10     1       0.7184957950E-05      10   10    1         0.1866378647E-03      0.8744593930E-03

    ------------------------------------------------
       NWT REQUIRED            9 OUTER ITERATIONS 
       AND A TOTAL OF         14 INNER ITERATIONS.
    ------------------------------------------------

 NO OUTPUT CONTROL FOR STRESS PERIOD   17   TIME STEP    4
 
 SOLVING FOR HEAD 
                                                   Max.-Head-Change                         Max.-Flux-Residual
  Residual-Control   Outer-Iter.   Inner-Iter.     Column Row Layer    Maximum-Head-Change  Column Row Layer    Maximum-Flux-Residual          L2-NORM 
          0                 1           2             2   13     1       0.1729691072E-01       2   13    1         0.9830078622E+00      0.2522070730E+01
          0                 2           2             2    2     1       0.2202913150E-02       2    2    1         0.1148757091E+00      0.4130426263E+00
          0                 3           2            10   10     1       0.8723835279E-03      10   10    1         0.2266110588E-01      0.1203051733E+00
          0                 4           2            10   10     1       0.3919865902E-03      10   10    1         0.1018228433E-01      0.4947073907E-01
          0                 5           2            10   10     1       0.1761304832E-03      10   10    1         0.4575187524E-02      0.2185774781E-01
          0                 6           1            10   10     1       0.7914024763E-04      10   10    1         0.2055758710E-02      0.9764235214E-02
          0                 7           1            10   10     1       0.3555984397E-04      10   10    1         0.9237084987E-03      0.4369367164E-02
          0                 8           1            10   10     1       0.1597797859E-04      10   10    1         0.4150470151E-03      0.1955893934E-02
          0                 9           1            10   10     1       0.7179321447E-05      10   10    1         0.1864915747E-03      0.8756402111E-03

    ------------------------------------------------
       NWT REQUIRED            9 OUTER ITERATIONS 
       AND A TOTAL OF         14 INNER ITERATIONS.
    ------------------------------------------------

 NO OUTPUT CONTROL FOR STRESS PERIOD   17   TIME STEP    5
 
 SOLVING FOR HEAD 
                                                   Max.-Head-Change                         Max.-Flux-Residual
  Residual-Control   Outer-Iter.   Inner-Iter.     Column Row Layer    Maximum-Head-Change  Column Row Layer    Maximum-Flux-Residual          L2-NORM 
          0                 1           2             2   13     1       0.1587929735E-01       2   13    1         0.9023183904E+00      0.2424535874E+01
          0                 2           2             2    2     1       0.2188831697E-02       2    2    1         0.1141326231E+00      0.4074008525E+00
          0                 3           2            10   10     1       0.8717035348E-03      10   10    1         0.2264345774E-01      0.1202671076E+00
          0                 4           2            10   10     1       0.3916807259E-03      10   10    1         0.1017434605E-01      0.4953612227E-01
          0                 5           2            10   10     1       0.1759929059E-03      10   10    1         0.4571616858E-02      0.2188847678E-01
          0                 6           1            10   10     1       0.7907836590E-04      10   10    1         0.2054152625E-02      0.9777596379E-02
          0                 7           1            10   10     1       0.3553200986E-04      10   10    1         0.9229860914E-03      0.4375138918E-02
          0                 8           1            10   10     1       0.1596545953E-04      10   10    1         0.4147220880E-03      0.1958386825E-02
          0                 9           1            10   10     1       0.7173690447E-05      10   10    1         0.1863454248E-03      0.8767178404E-03

    ------------------------------------------------
       NWT REQUIRED            9 OUTER ITERATIONS 
       AND A TOTAL OF         14 INNER ITERATIONS.
    ------------------------------------------------

 NO OUTPUT CONTROL FOR STRESS PERIOD   17   TIME STEP    6
 
 SOLVING FOR HEAD 
                                                   Max.-Head-Change                         Max.-Flux-Residual
  Residual-Control   Outer-Iter.   Inner-Iter.     Column Row Layer    Maximum-Head-Change  Column Row Layer    Maximum-Flux-Residual          L2-NORM 
          0                 1           2             2   13     1       0.1457983883E-01       2   13    1         0.8283574914E+00      0.2339065426E+01
          0                 2           2             2    2     1       0.2175021266E-02       2    2    1         0.1134038823E+00      0.4025742367E+00
          0                 3           2            10   10     1       0.8710240163E-03      10   10    1         0.2262582272E-01      0.1202531763E+00
          0                 4           2            10   10     1       0.3913750594E-03      10   10    1         0.1016641323E-01      0.4960138241E-01
          0                 5           2            10   10     1       0.1758554093E-03      10   10    1         0.4568048451E-02      0.2191892737E-01
          0                 6           1            10   10     1       0.7901651745E-04      10   10    1         0.2052547476E-02      0.9790825642E-02
          0                 7           1            10   10     1       0.3550418951E-04      10   10    1         0.9222640649E-03      0.4380848113E-02
          0                 8           1            10   10     1       0.1595294573E-04      10   10    1         0.4143973105E-03      0.1960851125E-02
          0                 9           1            10   10     1       0.7168061698E-05      10   10    1         0.1861993379E-03      0.8777824454E-03

    ------------------------------------------------
       NWT REQUIRED            9 OUTER ITERATIONS 
       AND A TOTAL OF         14 INNER ITERATIONS.
    ------------------------------------------------

 NO OUTPUT CONTROL FOR STRESS PERIOD   17   TIME STEP    7
 
 SOLVING FOR HEAD 
                                                   Max.-Head-Change                         Max.-Flux-Residual
  Residual-Control   Outer-Iter.   Inner-Iter.     Column Row Layer    Maximum-Head-Change  Column Row Layer    Maximum-Flux-Residual          L2-NORM 
          0                 1           2             2   13     1       0.1338860033E-01       2   13    1         0.7605594528E+00      0.2264305153E+01
          0                 2           2             2    2     1       0.2161475823E-02       2    2    1         0.1126891584E+00      0.3984515202E+00
          0                 3           2            10   10     1       0.8703451922E-03      10   10    1         0.2260820439E-01      0.1202594883E+00
          0                 4           2            10   10     1       0.3910697319E-03      10   10    1         0.1015848864E-01      0.4966641416E-01
          0                 5           2            10   10     1       0.1757180784E-03      10   10    1         0.4564484072E-02      0.2194897550E-01
          0                 6           1            10   10     1       0.7895474852E-04      10   10    1         0.2050944276E-02      0.9803839792E-02
          0                 7           1            10   10     1       0.3547640768E-04      10   10    1         0.9215429845E-03      0.4386453319E-02
          0                 8           1            10   10     1       0.1594045018E-04      10   10    1         0.4140729878E-03      0.1963265434E-02
          0                 9           1            10   10     1       0.7162441703E-05      10   10    1         0.1860534695E-03      0.8788229701E-03

    ------------------------------------------------
       NWT REQUIRED            9 OUTER ITERATIONS 
       AND A TOTAL OF         14 INNER ITERATIONS.
    ------------------------------------------------

 NO OUTPUT CONTROL FOR STRESS PERIOD   17   TIME STEP    8
 
 SOLVING FOR HEAD 
                                                   Max.-Head-Change                         Max.-Flux-Residual
  Residual-Control   Outer-Iter.   Inner-Iter.     Column Row Layer    Maximum-Head-Change  Column Row Layer    Maximum-Flux-Residual          L2-NORM 
          0                 1           2             2    2     1       0.1237310704E-01       2   13    1         0.6984191001E+00      0.2198752288E+01
          0                 2           2             2    2     1       0.2148188637E-02       2    2    1         0.1119881160E+00      0.3948797610E+00
          0                 3           2            10   10     1       0.8696891494E-03      10   10    1         0.2259117905E-01      0.1202737531E+00
          0                 4           2            10   10     1       0.3907746158E-03      10   10    1         0.1015082984E-01      0.4972871972E-01
          0                 5           2            10   10     1       0.1755853237E-03      10   10    1         0.4561038819E-02      0.2197784518E-01
          0                 6           1            10   10     1       0.7889503176E-04      10   10    1         0.2049394479E-02      0.9816362000E-02
          0                 7           1            10   10     1       0.3544954525E-04      10   10    1         0.9208458307E-03      0.4391847504E-02
          0                 8           1            10   10     1       0.1592836681E-04      10   10    1         0.4137593858E-03      0.1965588060E-02
          0                 9           1            10   10     1       0.7157006290E-05      10   10    1         0.1859124007E-03      0.8798235535E-03

    ------------------------------------------------
       NWT REQUIRED            9 OUTER ITERATIONS 
       AND A TOTAL OF         14 INNER ITERATIONS.
    ------------------------------------------------

 NO OUTPUT CONTROL FOR STRESS PERIOD   17   TIME STEP    9
 
 SOLVING FOR HEAD 
                                                   Max.-Head-Change                         Max.-Flux-Residual
  Residual-Control   Outer-Iter.   Inner-Iter.     Column Row Layer    Maximum-Head-Change  Column Row Layer    Maximum-Flux-Residual          L2-NORM 
          0                 1           2             2    2     1       0.1229681520E-01       2    2    1         0.6416662036E+00      0.2141424931E+01
          0                 2           2             2    2     1       0.2135169634E-02       2    2    1         0.1113012538E+00      0.3917873655E+00
          0                 3           2            10   10     1       0.8690113455E-03      10   10    1         0.2257358774E-01      0.1202853782E+00
          0                 4           2            10   10     1       0.3904697367E-03      10   10    1         0.1014291712E-01      0.4978301575E-01
          0                 5           2            10   10     1       0.1754481893E-03      10   10    1         0.4557479649E-02      0.2200310203E-01
          0                 6           1            10   10     1       0.7883334937E-04      10   10    1         0.2047793567E-02      0.9827346610E-02
          0                 7           1            10   10     1       0.3542180093E-04      10   10    1         0.9201257496E-03      0.4396592854E-02
          0                 8           1            10   10     1       0.1591588802E-04      10   10    1         0.4134355041E-03      0.1967637778E-02
          0                 9           1            10   10     1       0.7151393548E-05      10   10    1         0.1857667229E-03      0.8807088767E-03

    ------------------------------------------------
       NWT REQUIRED            9 OUTER ITERATIONS 
       AND A TOTAL OF         14 INNER ITERATIONS.
    ------------------------------------------------

 NO OUTPUT CONTROL FOR STRESS PERIOD   17   TIME STEP   10
 
 SOLVING FOR HEAD 
                                                   Max.-Head-Change                         Max.-Flux-Residual
  Residual-Control   Outer-Iter.   Inner-Iter.     Column Row Layer    Maximum-Head-Change  Column Row Layer    Maximum-Flux-Residual          L2-NORM 
          0                 1           2             2    2     1       0.1222197372E-01       2    2    1         0.6377250720E+00      0.2091179890E+01
          0                 2           2             2    2     1       0.2122396784E-02       2    2    1         0.1106274310E+00      0.3891179238E+00
          0                 3           2            10   10     1       0.8683342922E-03      10   10    1         0.2255601462E-01      0.1203094948E+00
          0                 4           2            10   10     1       0.3901652213E-03      10   10    1         0.1013501327E-01      0.4983767440E-01
          0                 5           2            10   10     1       0.1753112302E-03      10   10    1         0.4553924778E-02      0.2202840869E-01
          0                 6           1            10   10     1       0.7877175077E-04      10   10    1         0.2046194724E-02      0.9838343518E-02
          0                 7           1            10   10     1       0.3539409663E-04      10   10    1         0.9194066594E-03      0.4401337986E-02
          0                 8           1            10   10     1       0.1590342799E-04      10   10    1         0.4131120949E-03      0.1969683613E-02
          0                 9           1            10   10     1       0.7145789810E-05      10   10    1         0.1856212744E-03      0.8815915033E-03

    ------------------------------------------------
       NWT REQUIRED            9 OUTER ITERATIONS 
       AND A TOTAL OF         14 INNER ITERATIONS.
    ------------------------------------------------

 NO OUTPUT CONTROL FOR STRESS PERIOD   17   TIME STEP   11
 
 SOLVING FOR HEAD 
                                                   Max.-Head-Change                         Max.-Flux-Residual
  Residual-Control   Outer-Iter.   Inner-Iter.     Column Row Layer    Maximum-Head-Change  Column Row Layer    Maximum-Flux-Residual          L2-NORM 
          0                 1           2             2    2     1       0.1214854901E-01       2    2    1         0.6338586671E+00      0.2047106933E+01
          0                 2           2             2    2     1       0.2109864941E-02       2    2    1         0.1099663517E+00      0.3867673208E+00
          0                 3           2            10   10     1       0.8676355319E-03      10   10    1         0.2253787803E-01      0.1203365372E+00
          0                 4           2            10   10     1       0.3898509445E-03      10   10    1         0.1012685604E-01      0.4989100015E-01
          0                 5           2            10   10     1       0.1751698815E-03      10   10    1         0.4550255963E-02      0.2205309291E-01
          0                 6           1            10   10     1       0.7870817855E-04      10   10    1         0.2044544648E-02      0.9849036004E-02
          0                 7           1            10   10     1       0.3536550544E-04      10   10    1         0.9186645348E-03      0.4405936801E-02
          0                 8           1            10   10     1       0.1589056903E-04      10   10    1         0.4127783194E-03      0.1971661394E-02
          0                 9           1            10   10     1       0.7140006492E-05      10   10    1         0.1854711572E-03      0.8824427095E-03

    ------------------------------------------------
       NWT REQUIRED            9 OUTER ITERATIONS 
       AND A TOTAL OF         14 INNER ITERATIONS.
    ------------------------------------------------

 NO OUTPUT CONTROL FOR STRESS PERIOD   17   TIME STEP   12
 
 SOLVING FOR HEAD 
                                                   Max.-Head-Change                         Max.-Flux-Residual
  Residual-Control   Outer-Iter.   Inner-Iter.     Column Row Layer    Maximum-Head-Change  Column Row Layer    Maximum-Flux-Residual          L2-NORM 
          0                 1           2             2    2     1       0.1207659775E-01       2    2    1         0.6300700034E+00      0.2007856949E+01
          0                 2           2             2    2     1       0.2097583434E-02       2    2    1         0.1093185232E+00      0.3846629704E+00
          0                 3           2            10   10     1       0.8669597764E-03      10   10    1         0.2252033920E-01      0.1203623565E+00
          0                 4           2            10   10     1       0.3895470006E-03      10   10    1         0.1011896729E-01      0.4994006851E-01
          0                 5           2            10   10     1       0.1750331733E-03      10   10    1         0.4546707735E-02      0.2207576328E-01
          0                 6           1            10   10     1       0.7864669075E-04      10   10    1         0.2042948733E-02      0.9858845195E-02
          0                 7           1            10   10     1       0.3533784991E-04      10   10    1         0.9179467313E-03      0.4410152795E-02
          0                 8           1            10   10     1       0.1587813051E-04      10   10    1         0.4124554710E-03      0.1973473871E-02
          0                 9           1            10   10     1       0.7134412008E-05      10   10    1         0.1853259519E-03      0.8832240399E-03

    ------------------------------------------------
       NWT REQUIRED            9 OUTER ITERATIONS 
       AND A TOTAL OF         14 INNER ITERATIONS.
    ------------------------------------------------

 NO OUTPUT CONTROL FOR STRESS PERIOD   17   TIME STEP   13
 
 SOLVING FOR HEAD 
                                                   Max.-Head-Change                         Max.-Flux-Residual
  Residual-Control   Outer-Iter.   Inner-Iter.     Column Row Layer    Maximum-Head-Change  Column Row Layer    Maximum-Flux-Residual          L2-NORM 
          0                 1           2             2    2     1       0.1200590748E-01       2    2    1         0.6263478804E+00      0.1973973939E+01
          0                 2           2             2    2     1       0.2085516153E-02       2    2    1         0.1086820341E+00      0.3829041475E+00
          0                 3           2            10   10     1       0.8662846784E-03      10   10    1         0.2250281725E-01      0.1203817697E+00
          0                 4           2            10   10     1       0.3892433560E-03      10   10    1         0.1011108624E-01      0.4998427796E-01
          0                 5           2            10   10     1       0.1748966017E-03      10   10    1         0.4543163008E-02      0.2209649845E-01
          0                 6           1            10   10     1       0.7858526423E-04      10   10    1         0.2041354399E-02      0.9867865427E-02
          0                 7           1            10   10     1       0.3531022214E-04      10   10    1         0.9172296467E-03      0.4414048179E-02
          0                 8           1            10   10     1       0.1586570474E-04      10   10    1         0.4121329537E-03      0.1975154480E-02
          0                 9           1            10   10     1       0.7128823277E-05      10   10    1         0.1851808943E-03      0.8839478652E-03

    ------------------------------------------------
       NWT REQUIRED            9 OUTER ITERATIONS 
       AND A TOTAL OF         14 INNER ITERATIONS.
    ------------------------------------------------

 NO OUTPUT CONTROL FOR STRESS PERIOD   17   TIME STEP   14
 
 SOLVING FOR HEAD 
                                                   Max.-Head-Change                         Max.-Flux-Residual
  Residual-Control   Outer-Iter.   Inner-Iter.     Column Row Layer    Maximum-Head-Change  Column Row Layer    Maximum-Flux-Residual          L2-NORM 
          0                 1           2             2    2     1       0.1193671690E-01       2    2    1         0.6227048391E+00      0.1944277834E+01
          0                 2           2             2    2     1       0.2073703976E-02       2    2    1         0.1080590365E+00      0.3813818718E+00
          0                 3           2            10   10     1       0.8656102540E-03      10   10    1         0.2248531257E-01      0.1204351201E+00
          0                 4           2            10   10     1       0.3889400188E-03      10   10    1         0.1010321307E-01      0.5003221964E-01
          0                 5           2            10   10     1       0.1747601706E-03      10   10    1         0.4539621891E-02      0.2211807687E-01
          0                 6           1            10   10     1       0.7852390274E-04      10   10    1         0.2039761722E-02      0.9877182864E-02
          0                 7           1            10   10     1       0.3528262414E-04      10   10    1         0.9165133182E-03      0.4418047633E-02
          0                 8           1            10   10     1       0.1585329223E-04      10   10    1         0.4118107763E-03      0.1976870866E-02
          0                 9           1            10   10     1       0.7123240549E-05      10   10    1         0.1850359918E-03      0.8846848637E-03

    ------------------------------------------------
       NWT REQUIRED            9 OUTER ITERATIONS 
       AND A TOTAL OF         14 INNER ITERATIONS.
    ------------------------------------------------

 NO OUTPUT CONTROL FOR STRESS PERIOD   17   TIME STEP   15
 
 SOLVING FOR HEAD 
                                                   Max.-Head-Change                         Max.-Flux-Residual
  Residual-Control   Outer-Iter.   Inner-Iter.     Column Row Layer    Maximum-Head-Change  Column Row Layer    Maximum-Flux-Residual          L2-NORM 
          0                 1           2             2    2     1       0.1186872435E-01       2    2    1         0.6191250152E+00      0.1917830013E+01
          0                 2           2             2    2     1       0.2062095441E-02       2    2    1         0.1074468119E+00      0.3799272936E+00
          0                 3           2            10   10     1       0.8649365171E-03      10   10    1         0.2246782554E-01      0.1204219862E+00
          0                 4           2            10   10     1       0.3886369955E-03      10   10    1         0.1009534796E-01      0.5005035345E-01
          0                 5           2            10   10     1       0.1746238823E-03      10   10    1         0.4536084440E-02      0.2212599594E-01
          0                 6           1            10   10     1       0.7846260602E-04      10   10    1         0.2038170717E-02      0.9880189979E-02
          0                 7           1            10   10     1       0.3525505565E-04      10   10    1         0.9157977516E-03      0.4419146825E-02
          0                 8           1            10   10     1       0.1584089298E-04      10   10    1         0.4114889467E-03      0.1977259092E-02
          0                 9           1            10   10     1       0.7117664573E-05      10   10    1         0.1848912540E-03      0.8848173971E-03

    ------------------------------------------------
       NWT REQUIRED            9 OUTER ITERATIONS 
       AND A TOTAL OF         14 INNER ITERATIONS.
    ------------------------------------------------

 NO OUTPUT CONTROL FOR STRESS PERIOD   17   TIME STEP   16
 
 SOLVING FOR HEAD 
                                                   Max.-Head-Change                         Max.-Flux-Residual
  Residual-Control   Outer-Iter.   Inner-Iter.     Column Row Layer    Maximum-Head-Change  Column Row Layer    Maximum-Flux-Residual          L2-NORM 
          0                 1           2             2    2     1       0.1180208018E-01       2    2    1         0.6156163451E+00      0.1894424700E+01
          0                 2           2             2    2     1       0.2050715870E-02       2    2    1         0.1068467124E+00      0.3786148927E+00
          0                 3           2            10   10     1       0.8642411987E-03      10   10    1         0.2244977725E-01      0.1204016013E+00
          0                 4           2            10   10     1       0.3883242877E-03      10   10    1         0.1008723100E-01      0.5006558276E-01
          0                 5           2            10   10     1       0.1744832484E-03      10   10    1         0.4532433982E-02      0.2213383255E-01
          0                 6           1            10   10     1       0.7839935969E-04      10   10    1         0.2036529003E-02      0.9883691575E-02
          0                 7           1            10   10     1       0.3522661227E-04      10   10    1         0.9150594305E-03      0.4420685073E-02
          0                 8           1            10   10     1       0.1582810180E-04      10   10    1         0.4111569094E-03      0.1977932447E-02
          0                 9           1            10   10     1       0.7111911769E-05      10   10    1         0.1847419254E-03      0.8851101205E-03

    ------------------------------------------------
       NWT REQUIRED            9 OUTER ITERATIONS 
       AND A TOTAL OF         14 INNER ITERATIONS.
    ------------------------------------------------

 NO OUTPUT CONTROL FOR STRESS PERIOD   17   TIME STEP   17
 
 SOLVING FOR HEAD 
                                                   Max.-Head-Change                         Max.-Flux-Residual
  Residual-Control   Outer-Iter.   Inner-Iter.     Column Row Layer    Maximum-Head-Change  Column Row Layer    Maximum-Flux-Residual          L2-NORM 
          0                 1           2             2    2     1       0.1173666440E-01       2    2    1         0.6121724547E+00      0.1873857139E+01
          0                 2           2             2    2     1       0.2039545369E-02       2    2    1         0.1062576633E+00      0.3775243593E+00
          0                 3           2            10   10     1       0.8635689675E-03      10   10    1         0.2243232891E-01      0.1204330972E+00
          0                 4           2            10   10     1       0.3880219495E-03      10   10    1         0.1007938349E-01      0.5010269213E-01
          0                 5           2            10   10     1       0.1743472715E-03      10   10    1         0.4528904541E-02      0.2215098414E-01
          0                 6           1            10   10     1       0.7833820454E-04      10   10    1         0.2034941642E-02      0.9891137067E-02
          0                 7           1            10   10     1       0.3519910831E-04      10   10    1         0.9143455227E-03      0.4423890951E-02
          0                 8           1            10   10     1       0.1581573206E-04      10   10    1         0.4108358331E-03      0.1979310949E-02
          0                 9           1            10   10     1       0.7106348799E-05      10   10    1         0.1845975263E-03      0.8857021982E-03

    ------------------------------------------------
       NWT REQUIRED            9 OUTER ITERATIONS 
       AND A TOTAL OF         14 INNER ITERATIONS.
    ------------------------------------------------

 NO OUTPUT CONTROL FOR STRESS PERIOD   17   TIME STEP   18
 
 SOLVING FOR HEAD 
                                                   Max.-Head-Change                         Max.-Flux-Residual
  Residual-Control   Outer-Iter.   Inner-Iter.     Column Row Layer    Maximum-Head-Change  Column Row Layer    Maximum-Flux-Residual          L2-NORM 
          0                 1           2             2    2     1       0.1167244907E-01       2    2    1         0.6087919055E+00      0.1855394078E+01
          0                 2           2             2    2     1       0.2028578805E-02       2    2    1         0.1056794095E+00      0.3765474494E+00
          0                 3           2            10   10     1       0.8628974649E-03      10   10    1         0.2241489931E-01      0.1204624700E+00
          0                 4           2            10   10     1       0.3877199426E-03      10   10    1         0.1007154451E-01      0.5013619484E-01
          0                 5           2            10   10     1       0.1742114457E-03      10   10    1         0.4525378979E-02      0.2216620363E-01
          0                 6           1            10   10     1       0.7827711767E-04      10   10    1         0.2033356035E-02      0.9897623033E-02
          0                 7           1            10   10     1       0.3517163537E-04      10   10    1         0.9136324110E-03      0.4426631816E-02
          0                 8           1            10   10     1       0.1580337632E-04      10   10    1         0.4105151195E-03      0.1980470972E-02
          0                 9           1            10   10     1       0.7100792332E-05      10   10    1         0.1844532929E-03      0.8861966930E-03

    ------------------------------------------------
       NWT REQUIRED            9 OUTER ITERATIONS 
       AND A TOTAL OF         14 INNER ITERATIONS.
    ------------------------------------------------

 NO OUTPUT CONTROL FOR STRESS PERIOD   17   TIME STEP   19
 
 SOLVING FOR HEAD 
                                                   Max.-Head-Change                         Max.-Flux-Residual
  Residual-Control   Outer-Iter.   Inner-Iter.     Column Row Layer    Maximum-Head-Change  Column Row Layer    Maximum-Flux-Residual          L2-NORM 
          0                 1           2             2    2     1       0.1160949603E-01       2    2    1         0.6054779226E+00      0.1839096838E+01
          0                 2           2             2    2     1       0.2017827033E-02       2    2    1         0.1051125111E+00      0.3756750001E+00
          0                 3           2            10   10     1       0.8622042731E-03      10   10    1         0.2239690674E-01      0.1204872137E+00
          0                 4           2            10   10     1       0.3874081805E-03      10   10    1         0.1006345233E-01      0.5016613022E-01
          0                 5           2            10   10     1       0.1740712325E-03      10   10    1         0.4521739541E-02      0.2217995451E-01
          0                 6           1            10   10     1       0.7821405767E-04      10   10    1         0.2031719216E-02      0.9903528783E-02
          0                 7           1            10   10     1       0.3514327502E-04      10   10    1         0.9128962693E-03      0.4429145706E-02
          0                 8           1            10   10     1       0.1579062166E-04      10   10    1         0.4101840485E-03      0.1981537370E-02
          0                 9           1            10   10     1       0.7095056035E-05      10   10    1         0.1843043995E-03      0.8866461356E-03

    ------------------------------------------------
       NWT REQUIRED            9 OUTER ITERATIONS 
       AND A TOTAL OF         14 INNER ITERATIONS.
    ------------------------------------------------

 NO OUTPUT CONTROL FOR STRESS PERIOD   17   TIME STEP   20
 
 SOLVING FOR HEAD 
                                                   Max.-Head-Change                         Max.-Flux-Residual
  Residual-Control   Outer-Iter.   Inner-Iter.     Column Row Layer    Maximum-Head-Change  Column Row Layer    Maximum-Flux-Residual          L2-NORM 
          0                 1           2             2    2     1       0.1154768740E-01       2    2    1         0.6022243227E+00      0.1824453502E+01
          0                 2           2             2    2     1       0.2007269689E-02       2    2    1         0.1045559041E+00      0.3748550557E+00
          0                 3           2            10   10     1       0.8615342716E-03      10   10    1         0.2237951577E-01      0.1205041528E+00
          0                 4           2            10   10     1       0.3871068554E-03      10   10    1         0.1005563091E-01      0.5019311915E-01
          0                 5           2            10   10     1       0.1739357153E-03      10   10    1         0.4518221948E-02      0.2219273973E-01
          0                 6           1            10   10     1       0.7815311161E-04      10   10    1         0.2030137236E-02      0.9909119549E-02
          0                 7           1            10   10     1       0.3511586536E-04      10   10    1         0.9121847966E-03      0.4431561822E-02
          0                 8           1            10   10     1       0.1577829494E-04      10   10    1         0.4098640789E-03      0.1982578428E-02
          0                 9           1            10   10     1       0.7089512324E-05      10   10    1         0.1841604967E-03      0.8870928772E-03

    ------------------------------------------------
       NWT REQUIRED            9 OUTER ITERATIONS 
       AND A TOTAL OF         14 INNER ITERATIONS.
    ------------------------------------------------

 NO OUTPUT CONTROL FOR STRESS PERIOD   17   TIME STEP   21
 
 SOLVING FOR HEAD 
                                                   Max.-Head-Change                         Max.-Flux-Residual
  Residual-Control   Outer-Iter.   Inner-Iter.     Column Row Layer    Maximum-Head-Change  Column Row Layer    Maximum-Flux-Residual          L2-NORM 
          0                 1           2             2    2     1       0.1148699695E-01       2    2    1         0.5990297008E+00      0.1811412367E+01
          0                 2           2             2    2     1       0.1996902537E-02       2    2    1         0.1040093551E+00      0.3741470604E+00
          0                 3           2            10   10     1       0.8608427386E-03       2    3    1         0.2237005401E-01      0.1205354345E+00
          0                 4           2            10   10     1       0.3867958676E-03      10   10    1         0.1004755823E-01      0.5022405719E-01
          0                 5           2            10   10     1       0.1737958632E-03      10   10    1         0.4514591611E-02      0.2220691170E-01
          0                 6           1            10   10     1       0.7809021944E-04      10   10    1         0.2028504652E-02      0.9915229451E-02
          0                 7           1            10   10     1       0.3508758255E-04      10   10    1         0.9114506214E-03      0.4434175158E-02
          0                 8           1            10   10     1       0.1576557629E-04      10   10    1         0.4095339241E-03      0.1983694819E-02
          0                 9           1            10   10     1       0.7083792785E-05      10   10    1         0.1840120291E-03      0.8875702811E-03

    ------------------------------------------------
       NWT REQUIRED            9 OUTER ITERATIONS 
       AND A TOTAL OF         14 INNER ITERATIONS.
    ------------------------------------------------

 NO OUTPUT CONTROL FOR STRESS PERIOD   17   TIME STEP   22
 
 SOLVING FOR HEAD 
                                                   Max.-Head-Change                         Max.-Flux-Residual
  Residual-Control   Outer-Iter.   Inner-Iter.     Column Row Layer    Maximum-Head-Change  Column Row Layer    Maximum-Flux-Residual          L2-NORM 
          0                 1           2             2    2     1       0.1142748856E-01       2    2    1         0.5958974282E+00      0.1799693915E+01
          0                 2           2             2    2     1       0.1986736379E-02       2    2    1         0.1034734382E+00      0.3735091769E+00
          0                 3           2             2    3     1       0.8627348049E-03       2    3    1         0.2254389933E-01      0.1205674777E+00
          0                 4           2            10   10     1       0.3864851842E-03       2    3    1         0.1005632303E-01      0.5025412143E-01
          0                 5           2            10   10     1       0.1736561387E-03      10   10    1         0.4510964776E-02      0.2222062261E-01
          0                 6           1            10   10     1       0.7802738104E-04      10   10    1         0.2026873551E-02      0.9921123891E-02
          0                 7           1            10   10     1       0.3505932300E-04      10   10    1         0.9107170716E-03      0.4436689611E-02
          0                 8           1            10   10     1       0.1575286715E-04      10   10    1         0.4092040239E-03      0.1984766586E-02
          0                 9           1            10   10     1       0.7078077247E-05      10   10    1         0.1838636658E-03      0.8880267219E-03

    ------------------------------------------------
       NWT REQUIRED            9 OUTER ITERATIONS 
       AND A TOTAL OF         14 INNER ITERATIONS.
    ------------------------------------------------

 NO OUTPUT CONTROL FOR STRESS PERIOD   17   TIME STEP   23
 
 SOLVING FOR HEAD 
                                                   Max.-Head-Change                         Max.-Flux-Residual
  Residual-Control   Outer-Iter.   Inner-Iter.     Column Row Layer    Maximum-Head-Change  Column Row Layer    Maximum-Flux-Residual          L2-NORM 
          0                 1           2             2    2     1       0.1136913540E-01       2    2    1         0.5928260895E+00      0.1788905460E+01
          0                 2           2             2    2     1       0.1976766650E-02       2    2    1         0.1029479123E+00      0.3729007481E+00
          0                 3           2             2    3     1       0.8690921261E-03       2    3    1         0.2271099514E-01      0.1205902057E+00
          0                 4           2             2    3     1       0.3870532626E-03       2    3    1         0.1013032865E-01      0.5027955864E-01
          0                 5           2            10   10     1       0.1735211192E-03       2    3    1         0.4509987349E-02      0.2223250589E-01
          0                 6           1            10   10     1       0.7796666058E-04      10   10    1         0.2025297384E-02      0.9926311241E-02
          0                 7           1            10   10     1       0.3503201563E-04      10   10    1         0.9100082385E-03      0.4438928541E-02
          0                 8           1            10   10     1       0.1574058694E-04      10   10    1         0.4088852546E-03      0.1985731212E-02
          0                 9           1            10   10     1       0.7072554795E-05      10   10    1         0.1837203114E-03      0.8884417514E-03

    ------------------------------------------------
       NWT REQUIRED            9 OUTER ITERATIONS 
       AND A TOTAL OF         14 INNER ITERATIONS.
    ------------------------------------------------

 NO OUTPUT CONTROL FOR STRESS PERIOD   17   TIME STEP   24
 
 SOLVING FOR HEAD 
                                                   Max.-Head-Change                         Max.-Flux-Residual
  Residual-Control   Outer-Iter.   Inner-Iter.     Column Row Layer    Maximum-Head-Change  Column Row Layer    Maximum-Flux-Residual          L2-NORM 
          0                 1           2             2    2     1       0.1131182257E-01       2    2    1         0.5898095981E+00      0.1779298930E+01
          0                 2           2             2    2     1       0.1966974129E-02       2    2    1         0.1024317465E+00      0.3723552825E+00
          0                 3           2             2    3     1       0.8752966798E-03       2    3    1         0.2287407667E-01      0.1206118355E+00
          0                 4           2             2    3     1       0.3898046102E-03       2    3    1         0.1020255577E-01      0.5030327764E-01
          0                 5           2             2    3     1       0.1734332675E-03       2    3    1         0.4542024733E-02      0.2224347668E-01
          0                 6           1            10   10     1       0.7790397050E-04      10   10    1         0.2023670097E-02      0.9931047301E-02
          0                 7           1            10   10     1       0.3500382286E-04      10   10    1         0.9092764153E-03      0.4440957628E-02
          0                 8           1            10   10     1       0.1572790832E-04      10   10    1         0.4085561401E-03      0.1986601739E-02
          0                 9           1            10   10     1       0.7066852764E-05      10   10    1         0.1835723013E-03      0.8888160728E-03

    ------------------------------------------------
       NWT REQUIRED            9 OUTER ITERATIONS 
       AND A TOTAL OF         14 INNER ITERATIONS.
    ------------------------------------------------

 NO OUTPUT CONTROL FOR STRESS PERIOD   17   TIME STEP   25
 
 SOLVING FOR HEAD 
                                                   Max.-Head-Change                         Max.-Flux-Residual
  Residual-Control   Outer-Iter.   Inner-Iter.     Column Row Layer    Maximum-Head-Change  Column Row Layer    Maximum-Flux-Residual          L2-NORM 
          0                 1           2             2    2     1       0.1125552644E-01       2    2    1         0.5868467641E+00      0.1770593709E+01
          0                 2           2             2    3     1       0.1973992751E-02       2    2    1         0.1019247223E+00      0.3718676644E+00
          0                 3           2             2    3     1       0.8812111222E-03       2    3    1         0.2302953155E-01      0.1206368506E+00
          0                 4           2             2    3     1       0.3924274164E-03       2    3    1         0.1027140586E-01      0.5032726955E-01
          0                 5           2             2    3     1       0.1745972830E-03       2    3    1         0.4572565605E-02      0.2225445942E-01
          0                 6           1            10   10     1       0.7784138196E-04       2    3    1         0.2034143030E-02      0.9935771183E-02
          0                 7           1            10   10     1       0.3497567812E-04      10   10    1         0.9085457882E-03      0.4442972160E-02
          0                 8           1            10   10     1       0.1571525195E-04      10   10    1         0.4082275894E-03      0.1987456485E-02
          0                 9           1            10   10     1       0.7061161487E-05      10   10    1         0.1834245600E-03      0.8891773964E-03

    ------------------------------------------------
       NWT REQUIRED            9 OUTER ITERATIONS 
       AND A TOTAL OF         14 INNER ITERATIONS.
    ------------------------------------------------

 NO OUTPUT CONTROL FOR STRESS PERIOD   17   TIME STEP   26
 
 SOLVING FOR HEAD 
                                                   Max.-Head-Change                         Max.-Flux-Residual
  Residual-Control   Outer-Iter.   Inner-Iter.     Column Row Layer    Maximum-Head-Change  Column Row Layer    Maximum-Flux-Residual          L2-NORM 
          0                 1           2             2    2     1       0.1120022351E-01       2    2    1         0.5839363114E+00      0.1762647157E+01
          0                 2           2             2    3     1       0.1987046618E-02       2    2    1         0.1014266324E+00      0.3714087344E+00
          0                 3           2             2    3     1       0.8869884202E-03       2    3    1         0.2318137964E-01      0.1206608578E+00
          0                 4           2             2    3     1       0.3949894529E-03       2    3    1         0.1033865964E-01      0.5035055869E-01
          0                 5           2             2    3     1       0.1757343524E-03       2    3    1         0.4602398964E-02      0.2226512722E-01
          0                 6           1             2    3     1       0.7815937990E-04       2    3    1         0.2047385001E-02      0.9940348084E-02
          0                 7           1            10   10     1       0.3494755738E-04       2    3    1         0.9105494682E-03      0.4444919464E-02
          0                 8           1            10   10     1       0.1570260608E-04      10   10    1         0.4078993252E-03      0.1988282471E-02
          0                 9           1            10   10     1       0.7055474712E-05      10   10    1         0.1832769384E-03      0.8895465079E-03

    ------------------------------------------------
       NWT REQUIRED            9 OUTER ITERATIONS 
       AND A TOTAL OF         14 INNER ITERATIONS.
    ------------------------------------------------

 NO OUTPUT CONTROL FOR STRESS PERIOD   17   TIME STEP   27
 
 SOLVING FOR HEAD 
                                                   Max.-Head-Change                         Max.-Flux-Residual
  Residual-Control   Outer-Iter.   Inner-Iter.     Column Row Layer    Maximum-Head-Change  Column Row Layer    Maximum-Flux-Residual          L2-NORM 
          0                 1           2             2    2     1       0.1114598106E-01       2    2    1         0.5810817851E+00      0.1755251794E+01
          0                 2           2             2    3     1       0.1999478332E-02       2    2    1         0.1009380822E+00      0.3709633316E+00
          0                 3           2             2    3     1       0.8924901901E-03       2    3    1         0.2332598759E-01      0.1206814917E+00
          0                 4           2             2    3     1       0.3974293411E-03       2    3    1         0.1040270583E-01      0.5037263032E-01
          0                 5           2             2    3     1       0.1768172486E-03       2    3    1         0.4630810111E-02      0.2227531789E-01
          0                 6           1             2    3     1       0.7864015435E-04       2    3    1         0.2059996166E-02      0.9944722505E-02
          0                 7           1             2    3     1       0.3497154503E-04       2    3    1         0.9161487170E-03      0.4446776751E-02
          0                 8           1            10   10     1       0.1569038265E-04      10   10    1         0.4075820396E-03      0.1989071295E-02
          0                 9           1            10   10     1       0.7049977772E-05      10   10    1         0.1831342480E-03      0.8898625120E-03

    ------------------------------------------------
       NWT REQUIRED            9 OUTER ITERATIONS 
       AND A TOTAL OF         14 INNER ITERATIONS.
    ------------------------------------------------

 NO OUTPUT CONTROL FOR STRESS PERIOD   17   TIME STEP   28
 
 SOLVING FOR HEAD 
                                                   Max.-Head-Change                         Max.-Flux-Residual
  Residual-Control   Outer-Iter.   Inner-Iter.     Column Row Layer    Maximum-Head-Change  Column Row Layer    Maximum-Flux-Residual          L2-NORM 
          0                 1           2             2   13     1      -0.9344090062E-02       4   13    1        -0.5384671888E+00      0.1787465180E+01
          0                 2           2             2    3     1       0.1999335363E-02       2    2    1         0.7778882488E-01      0.3581430861E+00
          0                 3           2             2    3     1       0.8916182019E-03       2    3    1         0.2331648803E-01      0.1188793430E+00
          0                 4           2             2    3     1       0.3969050881E-03       2    3    1         0.1039121300E-01      0.5018348617E-01
          0                 5           2             2    3     1       0.1765617404E-03       2    3    1         0.4624478606E-02      0.2224041203E-01
          0                 6           1             2    3     1       0.7852316316E-04       2    3    1         0.2056983361E-02      0.9932712166E-02
          0                 7           1             2    3     1       0.3491915127E-04       2    3    1         0.9147805960E-03      0.4441721729E-02
          0                 8           1            10   10     1       0.1567776555E-04      10   10    1         0.4072545217E-03      0.1986860650E-02
          0                 9           1            10   10     1       0.7044303502E-05      10   10    1         0.1829869585E-03      0.8888888768E-03

    ------------------------------------------------
       NWT REQUIRED            9 OUTER ITERATIONS 
       AND A TOTAL OF         14 INNER ITERATIONS.
    ------------------------------------------------

 NO OUTPUT CONTROL FOR STRESS PERIOD   17   TIME STEP   29
 
 SOLVING FOR HEAD 
                                                   Max.-Head-Change                         Max.-Flux-Residual
  Residual-Control   Outer-Iter.   Inner-Iter.     Column Row Layer    Maximum-Head-Change  Column Row Layer    Maximum-Flux-Residual          L2-NORM 
          0                 1           2             2   13     1      -0.1832593261E-01       2   13    1        -0.1035369151E+01      0.2410587865E+01
          0                 2           2             2    3     1       0.1986850013E-02       4   13    1         0.1012660158E+00      0.3822530793E+00
          0                 3           2             2    3     1       0.8851373546E-03       2    3    1         0.2316197713E-01      0.1179624611E+00
          0                 4           2             2    3     1       0.3938697242E-03       2    3    1         0.1031418624E-01      0.4995345689E-01
          0                 5           2             2    3     1       0.1751883239E-03       2    3    1         0.4588868447E-02      0.2217691035E-01
          0                 6           1             2    3     1       0.7790956849E-04       2    3    1         0.2040946543E-02      0.9907817168E-02
          0                 7           1            10   10     1       0.3486431042E-04       2    3    1         0.9076286499E-03      0.4431023061E-02
          0                 8           1            10   10     1       0.1566516896E-04      10   10    1         0.4069275290E-03      0.1982185302E-02
          0                 9           1            10   10     1       0.7038638988E-05      10   10    1         0.1828399099E-03      0.8868401533E-03

    ------------------------------------------------
       NWT REQUIRED            9 OUTER ITERATIONS 
       AND A TOTAL OF         14 INNER ITERATIONS.
    ------------------------------------------------

 NO OUTPUT CONTROL FOR STRESS PERIOD   17   TIME STEP   30



 STREAM LISTING     PERIOD     17   STEP       30

 LAYER ROW COL. STREAM  RCH.  FLOW INTO     FLOW TO   FLOW OUT OF   OVRLND.     DIRECT     STREAM       STREAM     STREAM     STREAM   STREAMBED  STREAMBED
                SEG.NO.  NO.  STRM. RCH.    AQUIFER    STRM. RCH.    RUNOFF     PRECIP       ET          HEAD       DEPTH      WIDTH   CONDCTNC.   GRADIENT

   1    1    1     1     1    3.5000E+01  2.8629E-01   3.4714E+01  0.000E+00  0.000E+00  0.000E+00  1.09434E+03  1.292E+00  1.482E+01  6.670E-02  1.431E+00
   1    2    2     1     2    3.4714E+01  4.4325E-01   3.4270E+01  0.000E+00  0.000E+00  0.000E+00  1.08935E+03  1.289E+00  1.476E+01  1.033E-01  1.430E+00
   1    3    3     1     3    3.4270E+01  3.7790E-01   3.3893E+01  0.000E+00  0.000E+00  0.000E+00  1.08370E+03  1.286E+00  1.470E+01  8.817E-02  1.429E+00
   1    3    4     1     4    3.3893E+01  3.4789E-01   3.3545E+01  0.000E+00  0.000E+00  0.000E+00  1.07869E+03  1.283E+00  1.464E+01  8.123E-02  1.428E+00
   1    4    5     2     1    3.1545E+01  3.4194E-01   3.1203E+01  0.000E+00  0.000E+00  0.000E+00  1.07332E+03  1.384E+00  1.200E+01  7.800E-02  1.461E+00
   1    5    6     2     2    3.1203E+01  2.6255E-01   3.0940E+01  0.000E+00  0.000E+00  0.000E+00  1.06789E+03  1.376E+00  1.200E+01  6.000E-02  1.459E+00
   1    6    6     2     3    3.0940E+01  2.6213E-01   3.0678E+01  0.000E+00  0.000E+00  0.000E+00  1.06316E+03  1.369E+00  1.200E+01  6.000E-02  1.456E+00
   1    7    6     2     4    3.0678E+01  2.6171E-01   3.0416E+01  0.000E+00  0.000E+00  0.000E+00  1.05844E+03  1.362E+00  1.200E+01  6.000E-02  1.454E+00
   1    8    6     2     5    3.0416E+01  2.6129E-01   3.0155E+01  0.000E+00  0.000E+00  0.000E+00  1.05371E+03  1.355E+00  1.200E+01  6.000E-02  1.452E+00
   1    3    5     3     1    2.0000E+00  2.8252E-01   1.7175E+00  0.000E+00  0.000E+00  0.000E+00  1.07555E+03  1.909E+00  9.636E+00  7.227E-02  1.955E+00
   1    3    6     3     2    1.7175E+00  2.4905E-01   1.4684E+00  0.000E+00  0.000E+00  0.000E+00  1.07264E+03  1.727E+00  8.909E+00  6.682E-02  1.864E+00
   1    3    7     3     3    1.4684E+00  1.9718E-01   1.2712E+00  0.000E+00  0.000E+00  0.000E+00  1.06987E+03  1.555E+00  8.218E+00  5.547E-02  1.777E+00
   1    4    8     3     4    1.2712E+00  2.2567E-01   1.0456E+00  0.000E+00  0.000E+00  0.000E+00  1.06682E+03  1.364E+00  7.455E+00  6.709E-02  1.682E+00
   1    5    8     3     5    1.0456E+00  1.5790E-01   8.8768E-01  0.000E+00  0.000E+00  0.000E+00  1.06362E+03  1.164E+00  6.655E+00  4.991E-02  1.582E+00
   1    6    8     3     6    8.8768E-01  5.5980E-02   8.3170E-01  0.000E+00  0.000E+00  0.000E+00  1.06158E+03  1.036E+00  6.145E+00  1.844E-02  1.518E+00
   1    5   10     4     1    1.0000E+01  9.0919E-02   9.9091E+00  0.000E+00  0.000E+00  0.000E+00  1.07836E+03  6.368E-01  1.000E+01  2.500E-02  1.212E+00
   1    5    9     4     2    9.9091E+00  1.8158E-01   9.7275E+00  0.000E+00  0.000E+00  0.000E+00  1.07154E+03  6.315E-01  1.000E+01  5.000E-02  1.211E+00
   1    6    8     4     3    9.7275E+00  1.2689E-01   9.6006E+00  0.000E+00  0.000E+00  0.000E+00  1.06381E+03  6.256E-01  1.000E+01  3.500E-02  1.209E+00
   1    6    8     5     1    1.0432E+01  2.2686E-01   1.0205E+01  0.000E+00  0.000E+00  0.000E+00  1.05868E+03  6.790E-01  1.542E+01  6.166E-02  1.226E+00
   1    7    7     5     2    1.0205E+01  2.7894E-01   9.9265E+00  0.000E+00  0.000E+00  0.000E+00  1.05417E+03  6.732E-01  1.519E+01  7.594E-02  1.224E+00
   1    8    7     5     3    9.9265E+00  1.9221E-01   9.7343E+00  0.000E+00  0.000E+00  0.000E+00  1.04992E+03  6.676E-01  1.497E+01  5.241E-02  1.223E+00
   1    8    6     5     4    9.7343E+00  1.3577E-01   9.5985E+00  0.000E+00  0.000E+00  0.000E+00  1.04691E+03  6.637E-01  1.482E+01  3.706E-02  1.221E+00
   1    9    6     6     1    3.9754E+01  2.7657E-01   3.9477E+01  0.000E+00  0.000E+00  0.000E+00  1.04434E+03  1.609E+00  1.200E+01  6.000E-02  1.536E+00
   1   10    7     6     2    3.9477E+01  2.7616E-01   3.9201E+01  0.000E+00  0.000E+00  0.000E+00  1.03978E+03  1.603E+00  1.200E+01  6.000E-02  1.534E+00
   1   11    7     6     3    3.9201E+01  2.7576E-01   3.8925E+01  0.000E+00  0.000E+00  0.000E+00  1.03523E+03  1.596E+00  1.200E+01  6.000E-02  1.532E+00
   1   12    7     6     4    3.8925E+01  2.7535E-01   3.8650E+01  0.000E+00  0.000E+00  0.000E+00  1.03068E+03  1.589E+00  1.200E+01  6.000E-02  1.530E+00
   1   13    7     6     5    3.8650E+01 -4.3808E-02   3.8694E+01  0.000E+00  0.000E+00  0.000E+00  1.02750E+03  1.586E+00  1.200E+01  2.400E-01 -6.084E-02
   1   14    9     7     1    1.5000E+02  1.1515E+00   1.4885E+02  0.000E+00  0.000E+00  0.000E+00  1.03987E+03  2.288E+00  5.530E+01  5.593E-01  6.862E-01
   1   13    8     7     2    1.4885E+02  1.5504E+00   1.4730E+02  0.000E+00  0.000E+00  0.000E+00  1.03478E+03  2.281E+00  5.526E+01  6.149E-01  8.405E-01
   1   13    7     7     3    1.4730E+02  1.1258E+00   1.4617E+02  0.000E+00  0.000E+00  0.000E+00  1.02969E+03  2.274E+00  5.523E+01  5.586E-01  6.717E-01
   1   13    6     8     1    1.8487E+02  6.2883E-01   1.8424E+02  0.000E+00  0.000E+00  0.000E+00  1.02492E+03  3.045E+00  4.415E+01  4.499E-01  4.659E-01
   1   13    5     8     2    1.8424E+02 -1.0103E+00   1.8525E+02  0.000E+00  0.000E+00  0.000E+00  1.01867E+03  3.046E+00  4.416E+01  4.500E+00 -7.483E-02
   1   13    4     8     3    1.8525E+02 -4.1697E+00   1.8942E+02  0.000E+00  0.000E+00  0.000E+00  1.01244E+03  3.062E+00  4.439E+01  4.524E+00 -3.072E-01
   1   13    3     8     4    1.8942E+02 -5.0080E+00   1.9442E+02  0.000E+00  0.000E+00  0.000E+00  1.00621E+03  3.090E+00  4.480E+01  4.565E+00 -3.657E-01
   1   13    2     8     5    1.9442E+02 -3.6153E+00   1.9804E+02  0.000E+00  0.000E+00  0.000E+00  9.99990E+02  3.115E+00  4.517E+01  4.603E+00 -2.618E-01
   1   13    1     8     6    1.9804E+02 -2.4361E+00   2.0048E+02  0.000E+00  0.000E+00  0.000E+00  9.95008E+02  3.133E+00  4.543E+01  2.778E+00 -2.923E-01
   1    6    8     9     1    0.0000E+00  0.0000E+00   0.0000E+00  0.000E+00  0.000E+00  0.000E+00  1.07850E+03  0.000E+00  4.000E+00  0.000E+00  1.000E+00





UNSATURATED ZONE PACKAGE VOLUMETRIC BUDGET FOR  TIME STEP    30 STRESS PERIOD   17
  ------------------------------------------------------------------------------



     CUMULATIVE VOLUMES      L**3       RATES FOR THIS TIME STEP      L**3/T
     ------------------                 ------------------------

           IN:                                      IN:
           ---                                      ---
        INFILTRATION =    17787597.4070          INFILTRATION =       0.0000E+00

          OUT:                                     OUT:
          ----                                     ----
              UZF ET =   544908199.8558                UZF ET =       0.0000E+00
        UZF RECHARGE =   985314533.8044          UZF RECHARGE =          20.7496

            IN - OUT = -1512435136.2531              IN - OUT =         -20.7496

          STORAGE:                                 STORAGE:
          --------                                 --------
      STORAGE CHANGE = -1512409282.4654        STORAGE CHANGE =         -20.7496

 PERCENT DISCREPANCY IS DIFFERENCE BETWEEN IN-OUT MINUS CHANGE IN STORAGE
 DIVIDED BY THE AVERAGE OF IN AND OUT TIMES 100

 PERCENT DISCREPANCY =          -0.00     PERCENT DISCREPANCY =           0.00






1
  VOLUMETRIC BUDGET FOR ENTIRE MODEL AT END OF TIME STEP   30, STRESS PERIOD  17
  ------------------------------------------------------------------------------

     CUMULATIVE VOLUMES      L**3       RATES FOR THIS TIME STEP      L**3/T
     ------------------                 ------------------------

           IN:                                      IN:
           ---                                      ---
             STORAGE     =    33506580.0000               STORAGE     =           4.0293
       CONSTANT HEAD     =           0.0000         CONSTANT HEAD     =           0.0000
               WELLS     =           0.0000                 WELLS     =           0.0000
     HEAD DEP BOUNDS     =    11574960.0000       HEAD DEP BOUNDS     =           0.2732
      STREAM LEAKAGE     =   463247328.0000        STREAM LEAKAGE     =          10.8068
        UZF RECHARGE     =   985314560.0000          UZF RECHARGE     =          20.7496
               GW ET     =           0.0000                 GW ET     =           0.0000
     SURFACE LEAKAGE     =           0.0000       SURFACE LEAKAGE     =           0.0000
    SUPPLEMENTARY WELLS  =           0.0000      SUPPLEMENTARY WELLS  =           0.0000

                TOTAL IN =  1493643392.0000                  TOTAL IN =          35.8588

          OUT:                                     OUT:
          ----                                     ----
             STORAGE     =   925893760.0000               STORAGE     =          18.3983
       CONSTANT HEAD     =           0.0000         CONSTANT HEAD     =           0.0000
               WELLS     =           0.0000                 WELLS     =           0.0000
     HEAD DEP BOUNDS     =    12170577.0000       HEAD DEP BOUNDS     =           0.2996
      STREAM LEAKAGE     =   468085632.0000        STREAM LEAKAGE     =          16.2832
        UZF RECHARGE     =           0.0000          UZF RECHARGE     =           0.0000
               GW ET     =    87308928.0000                 GW ET     =           0.8750
     SURFACE LEAKAGE     =           0.0000       SURFACE LEAKAGE     =           0.0000
    SUPPLEMENTARY WELLS  =       36673.0352      SUPPLEMENTARY WELLS  =           0.0000

               TOTAL OUT =  1493495552.0000                 TOTAL OUT =          35.8561

                IN - OUT =      147840.0000                  IN - OUT =       2.7313E-03

     PERCENT DISCREPANCY =           0.01         PERCENT DISCREPANCY =           0.01






         TIME SUMMARY AT END OF TIME STEP   30 IN STRESS PERIOD   17
                    SECONDS     MINUTES      HOURS       DAYS        YEARS
                    -----------------------------------------------------------
   TIME STEP LENGTH  87600.      1460.0      24.333      1.0139     2.77588E-03
 STRESS PERIOD TIME 2.62800E+06  43800.      730.00      30.417     8.32763E-02
         TOTAL TIME 4.21344E+07 7.02240E+05  11704.      487.67      1.3352    
1
1
                            STRESS PERIOD NO.   18, LENGTH =   2628000.    
                            -----------------------------------------------

                              NUMBER OF TIME STEPS =    30

                               MULTIPLIER FOR DELT =     1.000

                            INITIAL TIME STEP SIZE =   87600.00    

 WELL NO.  LAYER   ROW   COL   STRESS RATE         
 --------------------------------------------------
      1      1      6      4       0.000    
      2      1      6      7       0.000    
      3      1      7      4       0.000    
      4      1      7      5       0.000    
      5      1      8      4       0.000    
      6      1      8      5       0.000    
      7      1      9      4       0.000    
      8      1      9      5       0.000    
      9      1     10      4       0.000    
     10      1     10      5       0.000    

     10 WELLS

 REUSING NON-PARAMETER GHB CELLS FROM LAST STRESS PERIOD

      2 GHB CELLS

 REUSING STREAM SEGMENT DATA FROM LAST STRESS PERIOD



            AREAL INFILTRATION RATE
 READING ON UNIT   19 WITH FORMAT: (10F4.0)            

            1           2           3           4           5           6           7           8           9          10
 ........................................................................................................................
   1    0.000       0.000       0.000       0.000       0.000       0.000       0.000       0.000       0.000       0.000    
   2    0.000       0.000       0.000       0.000       0.000       0.000       0.000       0.000       0.000       0.000    
   3    0.000       0.000       0.000       0.000       0.000       0.000       0.000       0.000       0.000       0.000    
   4    0.000       0.000       0.000       0.000       0.000       0.000       0.000       0.000       0.000       0.000    
   5    0.000       0.000       0.000       0.000       0.000       0.000       0.000       0.000       0.000       0.000    
   6    0.000       0.000       0.000       0.000       0.000       0.000       0.000       0.000       0.000       0.000    
   7    0.000       0.000       0.000       0.000       0.000       0.000       0.000       0.000       0.000       0.000    
   8    0.000       0.000       0.000       0.000       0.000       0.000       0.000       0.000       0.000       0.000    
   9    0.000       0.000       0.000       0.000       0.000       0.000       0.000       0.000       0.000       0.000    
  10    0.000       0.000       0.000       0.000       0.000       0.000       0.000       0.000       0.000       0.000    
  11    0.000       0.000       0.000       0.000       0.000       0.000       0.000       0.000       0.000       0.000    
  12    0.000       0.000       0.000       0.000       0.000       0.000       0.000       0.000       0.000       0.000    
  13    0.000       0.000       0.000       0.000       0.000       0.000       0.000       0.000       0.000       0.000    
  14    0.000       0.000       0.000       0.000       0.000       0.000       0.000       0.000       0.000       0.000    
  15    0.000       0.000       0.000       0.000       0.000       0.000       0.000       0.000       0.000       0.000    

                  ET RATE =  1.000000E-08

 USING ET EXTINCTION DEPTH FROM PREVIOUS STRESS PERIOD. CURRENT PERIOD IS:      18

 USING EXTINCTION WATER CONTENT FROM PREVIOUS STRESS PERIOD. CURRENT PERIOD IS:      18

 PROCESSING AGO STRESS PERIOD DATA

 READING AGO STRESS PERIOD DATA

 READING IRRIGATION STREAM

 READING IRRIGATION WELL

 READING SUPPLEMENTAL WEL

 END PROCESSING AGO STRESS PERIOD DATA OPTIONS
 
 SOLVING FOR HEAD 
                                                   Max.-Head-Change                         Max.-Flux-Residual
  Residual-Control   Outer-Iter.   Inner-Iter.     Column Row Layer    Maximum-Head-Change  Column Row Layer    Maximum-Flux-Residual          L2-NORM 
          0                 1           2             2   13     1      -0.1913452612E-01       2   13    1        -0.1080403423E+01      0.2504620159E+01
          0                 2           2             2    3     1       0.1977253855E-02       4   13    1         0.1036210644E+00      0.3836981329E+00
          0                 3           2             2    3     1       0.8808910211E-03       2    3    1         0.2305031178E-01      0.1177539149E+00
          0                 4           2             2    3     1       0.3919892591E-03       2    3    1         0.1026476013E-01      0.4984669925E-01
          0                 5           2             2    3     1       0.1743553101E-03       2    3    1         0.4566977937E-02      0.2213030203E-01
          0                 6           1             2    3     1       0.7754050813E-04       2    3    1         0.2031248985E-02      0.9887501389E-02
          0                 7           1            10   10     1       0.3483632224E-04      10   10    1         0.9049283981E-03      0.4422148634E-02
          0                 8           1            10   10     1       0.1565258187E-04      10   10    1         0.4066008048E-03      0.1978299609E-02
          0                 9           1            10   10     1       0.7032978474E-05      10   10    1         0.1826929795E-03      0.8851394860E-03

    ------------------------------------------------
       NWT REQUIRED            9 OUTER ITERATIONS 
       AND A TOTAL OF         14 INNER ITERATIONS.
    ------------------------------------------------

 NO OUTPUT CONTROL FOR STRESS PERIOD   18   TIME STEP    1
 
 SOLVING FOR HEAD 
                                                   Max.-Head-Change                         Max.-Flux-Residual
  Residual-Control   Outer-Iter.   Inner-Iter.     Column Row Layer    Maximum-Head-Change  Column Row Layer    Maximum-Flux-Residual          L2-NORM 
          0                 1           2             2   13     1      -0.1768418768E-01       2   13    1        -0.9983799592E+00      0.2362928402E+01
          0                 2           2             2    3     1       0.1967853134E-02       2   13    1         0.9472680271E-01      0.3748172111E+00
          0                 3           2             2    3     1       0.8767311099E-03       2    3    1         0.2294092023E-01      0.1173282047E+00
          0                 4           2             2    3     1       0.3901470467E-03       2    3    1         0.1021633984E-01      0.4974762357E-01
          0                 5           2             2    3     1       0.1735392353E-03       2    3    1         0.4545532682E-02      0.2208809966E-01
          0                 6           1            10   10     1       0.7746934404E-04       2    3    1         0.2021748595E-02      0.9869000029E-02
          0                 7           1            10   10     1       0.3480836758E-04      10   10    1         0.9042027649E-03      0.4414019064E-02
          0                 8           1            10   10     1       0.1564001029E-04      10   10    1         0.4062744729E-03      0.1974722627E-02
          0                 9           1            10   10     1       0.7027324464E-05      10   10    1         0.1825462176E-03      0.8835583666E-03

    ------------------------------------------------
       NWT REQUIRED            9 OUTER ITERATIONS 
       AND A TOTAL OF         14 INNER ITERATIONS.
    ------------------------------------------------

 NO OUTPUT CONTROL FOR STRESS PERIOD   18   TIME STEP    2
 
 SOLVING FOR HEAD 
                                                   Max.-Head-Change                         Max.-Flux-Residual
  Residual-Control   Outer-Iter.   Inner-Iter.     Column Row Layer    Maximum-Head-Change  Column Row Layer    Maximum-Flux-Residual          L2-NORM 
          0                 1           2             2   13     1      -0.1634564709E-01       2   13    1        -0.9226883373E+00      0.2236722343E+01
          0                 2           2             2    3     1       0.1958748005E-02       2   13    1         0.8756781268E-01      0.3671343574E+00
          0                 3           2             2    3     1       0.8727018333E-03       2    3    1         0.2283496735E-01      0.1169441732E+00
          0                 4           2             2    3     1       0.3883626212E-03       2    3    1         0.1016943975E-01      0.4965320197E-01
          0                 5           2             2    3     1       0.1727487326E-03       2    3    1         0.4524760015E-02      0.2204781383E-01
          0                 6           1            10   10     1       0.7740523883E-04       2    3    1         0.2012545876E-02      0.9851365250E-02
          0                 7           1            10   10     1       0.3477953978E-04      10   10    1         0.9034544264E-03      0.4406281824E-02
          0                 8           1            10   10     1       0.1562704629E-04      10   10    1         0.4059379463E-03      0.1971323197E-02
          0                 9           1            10   10     1       0.7021494876E-05      10   10    1         0.1823948873E-03      0.8820629645E-03

    ------------------------------------------------
       NWT REQUIRED            9 OUTER ITERATIONS 
       AND A TOTAL OF         14 INNER ITERATIONS.
    ------------------------------------------------

 NO OUTPUT CONTROL FOR STRESS PERIOD   18   TIME STEP    3
 
 SOLVING FOR HEAD 
                                                   Max.-Head-Change                         Max.-Flux-Residual
  Residual-Control   Outer-Iter.   Inner-Iter.     Column Row Layer    Maximum-Head-Change  Column Row Layer    Maximum-Flux-Residual          L2-NORM 
          0                 1           2             2   13     1      -0.1511016275E-01       2   13    1        -0.8528362749E+00      0.2124701938E+01
          0                 2           2             2    3     1       0.1949929261E-02       2   13    1         0.8095844974E-01      0.3605076743E+00
          0                 3           2             2    3     1       0.8687991946E-03       2    3    1         0.2273234668E-01      0.1165963972E+00
          0                 4           2             2    3     1       0.3866342319E-03       2    3    1         0.1012401349E-01      0.4956229907E-01
          0                 5           2            10   10     1       0.1721348350E-03       2    3    1         0.4504639544E-02      0.2200873875E-01
          0                 6           1            10   10     1       0.7734323405E-04      10   10    1         0.2009114444E-02      0.9834206324E-02
          0                 7           1            10   10     1       0.3475165465E-04      10   10    1         0.9027306005E-03      0.4398735405E-02
          0                 8           1            10   10     1       0.1561450622E-04      10   10    1         0.4056124297E-03      0.1968002797E-02
          0                 9           1            10   10     1       0.7015854872E-05      10   10    1         0.1822484891E-03      0.8805996120E-03

    ------------------------------------------------
       NWT REQUIRED            9 OUTER ITERATIONS 
       AND A TOTAL OF         14 INNER ITERATIONS.
    ------------------------------------------------

 NO OUTPUT CONTROL FOR STRESS PERIOD   18   TIME STEP    4
 
 SOLVING FOR HEAD 
                                                   Max.-Head-Change                         Max.-Flux-Residual
  Residual-Control   Outer-Iter.   Inner-Iter.     Column Row Layer    Maximum-Head-Change  Column Row Layer    Maximum-Flux-Residual          L2-NORM 
          0                 1           2             2   13     1      -0.1396956619E-01       2   13    1        -0.7883569578E+00      0.2025406068E+01
          0                 2           2             2    3     1       0.1941387466E-02       2   13    1         0.7485881245E-01      0.3547937325E+00
          0                 3           2             2    3     1       0.8650190023E-03       2    3    1         0.2263294821E-01      0.1162861273E+00
          0                 4           2             2    3     1       0.3849600213E-03       2    3    1         0.1008001223E-01      0.4947864403E-01
          0                 5           2            10   10     1       0.1719971259E-03       2    3    1         0.4485149670E-02      0.2197280262E-01
          0                 6           1            10   10     1       0.7728130380E-04      10   10    1         0.2007506882E-02      0.9818451538E-02
          0                 7           1            10   10     1       0.3472380354E-04      10   10    1         0.9020076499E-03      0.4391816487E-02
          0                 8           1            10   10     1       0.1560198091E-04      10   10    1         0.4052873067E-03      0.1964961793E-02
          0                 9           1            10   10     1       0.7010222121E-05      10   10    1         0.1821022787E-03      0.8792623039E-03

    ------------------------------------------------
       NWT REQUIRED            9 OUTER ITERATIONS 
       AND A TOTAL OF         14 INNER ITERATIONS.
    ------------------------------------------------

 NO OUTPUT CONTROL FOR STRESS PERIOD   18   TIME STEP    5
 
 SOLVING FOR HEAD 
                                                   Max.-Head-Change                         Max.-Flux-Residual
  Residual-Control   Outer-Iter.   Inner-Iter.     Column Row Layer    Maximum-Head-Change  Column Row Layer    Maximum-Flux-Residual          L2-NORM 
          0                 1           2             2   13     1      -0.1291645604E-01       2   13    1        -0.7288305533E+00      0.1937430109E+01
          0                 2           2             2    3     1       0.1933004681E-02       2   13    1         0.6922568288E-01      0.3498202339E+00
          0                 3           2             2    3     1       0.8613089253E-03       2    3    1         0.2253539844E-01      0.1160053342E+00
          0                 4           2             2    3     1       0.3833167750E-03       2    3    1         0.1003682663E-01      0.4940185546E-01
          0                 5           2            10   10     1       0.1718595328E-03       2    3    1         0.4466020091E-02      0.2193985399E-01
          0                 6           1            10   10     1       0.7721942108E-04      10   10    1         0.2005900649E-02      0.9803985837E-02
          0                 7           1            10   10     1       0.3469597218E-04      10   10    1         0.9012852536E-03      0.4385449268E-02
          0                 8           1            10   10     1       0.1558946410E-04      10   10    1         0.4049624114E-03      0.1962152435E-02
          0                 9           1            10   10     1       0.7004592622E-05      10   10    1         0.1819561558E-03      0.8780221510E-03

    ------------------------------------------------
       NWT REQUIRED            9 OUTER ITERATIONS 
       AND A TOTAL OF         14 INNER ITERATIONS.
    ------------------------------------------------

 NO OUTPUT CONTROL FOR STRESS PERIOD   18   TIME STEP    6
 
 SOLVING FOR HEAD 
                                                   Max.-Head-Change                         Max.-Flux-Residual
  Residual-Control   Outer-Iter.   Inner-Iter.     Column Row Layer    Maximum-Head-Change  Column Row Layer    Maximum-Flux-Residual          L2-NORM 
          0                 1           2             2   13     1      -0.1194401925E-01       2   13    1        -0.6738705676E+00      0.1859787244E+01
          0                 2           2             2    3     1       0.1924883107E-02       2   13    1         0.6402476650E-01      0.3454946171E+00
          0                 3           2             2    3     1       0.8577143422E-03       2    3    1         0.2244088780E-01      0.1157159421E+00
          0                 4           2            10   10     1       0.3821846829E-03       2    3    1         0.9994985135E-02      0.4931141998E-01
          0                 5           2            10   10     1       0.1717221333E-03      10   10    1         0.4460762303E-02      0.2190044670E-01
          0                 6           1            10   10     1       0.7715762939E-04      10   10    1         0.2004296694E-02      0.9786601845E-02
          0                 7           1            10   10     1       0.3466818259E-04      10   10    1         0.9005639093E-03      0.4377772266E-02
          0                 8           1            10   10     1       0.1557696580E-04      10   10    1         0.4046379981E-03      0.1958759630E-02
          0                 9           1            10   10     1       0.6998972126E-05      10   10    1         0.1818102613E-03      0.8765216346E-03

    ------------------------------------------------
       NWT REQUIRED            9 OUTER ITERATIONS 
       AND A TOTAL OF         14 INNER ITERATIONS.
    ------------------------------------------------

 NO OUTPUT CONTROL FOR STRESS PERIOD   18   TIME STEP    7
 
 SOLVING FOR HEAD 
                                                   Max.-Head-Change                         Max.-Flux-Residual
  Residual-Control   Outer-Iter.   Inner-Iter.     Column Row Layer    Maximum-Head-Change  Column Row Layer    Maximum-Flux-Residual          L2-NORM 
          0                 1           2             2   13     1      -0.1104604885E-01       2   13    1        -0.6231232651E+00      0.1791717348E+01
          0                 2           2             2    3     1       0.1916906224E-02       2   13    1         0.5921944256E-01      0.3418474518E+00
          0                 3           2             2    3     1       0.8541836076E-03       2    3    1         0.2234805985E-01      0.1154865195E+00
          0                 4           2            10   10     1       0.3818695012E-03       2    3    1         0.9953886453E-02      0.4924141734E-01
          0                 5           2            10   10     1       0.1715803973E-03      10   10    1         0.4457083016E-02      0.2187001465E-01
          0                 6           1            10   10     1       0.7709389110E-04      10   10    1         0.2002642130E-02      0.9773207051E-02
          0                 7           1            10   10     1       0.3463951962E-04      10   10    1         0.8998198576E-03      0.4371871040E-02
          0                 8           1            10   10     1       0.1556407658E-04      10   10    1         0.4043034043E-03      0.1956157308E-02
          0                 9           1            10   10     1       0.6993175553E-05      10   10    1         0.1816597904E-03      0.8753727035E-03

    ------------------------------------------------
       NWT REQUIRED            9 OUTER ITERATIONS 
       AND A TOTAL OF         14 INNER ITERATIONS.
    ------------------------------------------------

 NO OUTPUT CONTROL FOR STRESS PERIOD   18   TIME STEP    8
 
 SOLVING FOR HEAD 
                                                   Max.-Head-Change                         Max.-Flux-Residual
  Residual-Control   Outer-Iter.   Inner-Iter.     Column Row Layer    Maximum-Head-Change  Column Row Layer    Maximum-Flux-Residual          L2-NORM 
          0                 1           2             2   13     1      -0.1021683887E-01       2   13    1        -0.5762633791E+00      0.1732098124E+01
          0                 2           2             2    3     1       0.1909284048E-02       3    2    1         0.5575435371E-01      0.3387028479E+00
          0                 3           2             2    3     1       0.8508098005E-03       2    3    1         0.2225935926E-01      0.1152766243E+00
          0                 4           2            10   10     1       0.3815647441E-03       2    3    1         0.9914614289E-02      0.4917535610E-01
          0                 5           2            10   10     1       0.1714433420E-03      10   10    1         0.4453525395E-02      0.2184132003E-01
          0                 6           1            10   10     1       0.7703225498E-04      10   10    1         0.2001042200E-02      0.9760587628E-02
          0                 7           1            10   10     1       0.3461180031E-04      10   10    1         0.8991003351E-03      0.4366312262E-02
          0                 8           1            10   10     1       0.1555161054E-04      10   10    1         0.4039798201E-03      0.1953706879E-02
          0                 9           1            10   10     1       0.6987569564E-05      10   10    1         0.1815142726E-03      0.8743250078E-03

    ------------------------------------------------
       NWT REQUIRED            9 OUTER ITERATIONS 
       AND A TOTAL OF         14 INNER ITERATIONS.
    ------------------------------------------------

 NO OUTPUT CONTROL FOR STRESS PERIOD   18   TIME STEP    9
 
 SOLVING FOR HEAD 
                                                   Max.-Head-Change                         Max.-Flux-Residual
  Residual-Control   Outer-Iter.   Inner-Iter.     Column Row Layer    Maximum-Head-Change  Column Row Layer    Maximum-Flux-Residual          L2-NORM 
          0                 1           2             2   13     1      -0.9450972463E-02       2   13    1        -0.5329932535E+00      0.1679657369E+01
          0                 2           2             2    3     1       0.1901790154E-02       3    2    1         0.5564168771E-01      0.3359689399E+00
          0                 3           2            10   10     1       0.8485113803E-03       2    3    1         0.2217215103E-01      0.1150839760E+00
          0                 4           2            10   10     1       0.3812502390E-03      10   10    1         0.9903606399E-02      0.4911287220E-01
          0                 5           2            10   10     1       0.1713019007E-03      10   10    1         0.4449853963E-02      0.2181401382E-01
          0                 6           1            10   10     1       0.7696864499E-04      10   10    1         0.1999391060E-02      0.9748530578E-02
          0                 7           1            10   10     1       0.3458319361E-04      10   10    1         0.8983577757E-03      0.4360984430E-02
          0                 8           1            10   10     1       0.1553874533E-04      10   10    1         0.4036458705E-03      0.1951350079E-02
          0                 9           1            10   10     1       0.6981783745E-05      10   10    1         0.1813640835E-03      0.8732484494E-03

    ------------------------------------------------
       NWT REQUIRED            9 OUTER ITERATIONS 
       AND A TOTAL OF         14 INNER ITERATIONS.
    ------------------------------------------------

 NO OUTPUT CONTROL FOR STRESS PERIOD   18   TIME STEP   10
 
 SOLVING FOR HEAD 
                                                   Max.-Head-Change                         Max.-Flux-Residual
  Residual-Control   Outer-Iter.   Inner-Iter.     Column Row Layer    Maximum-Head-Change  Column Row Layer    Maximum-Flux-Residual          L2-NORM 
          0                 1           2             2   13     1      -0.8743497540E-02       2   13    1        -0.4930259945E+00      0.1633885512E+01
          0                 2           2             2    3     1       0.1894526912E-02       3    2    1         0.5553156097E-01      0.3335957256E+00
          0                 3           2            10   10     1       0.8478353366E-03       2    3    1         0.2208762563E-01      0.1148874433E+00
          0                 4           2            10   10     1       0.3809462080E-03      10   10    1         0.9895714508E-02      0.4904339739E-01
          0                 5           2            10   10     1       0.1711651712E-03      10   10    1         0.4446304809E-02      0.2178337901E-01
          0                 6           1            10   10     1       0.7690715444E-04      10   10    1         0.1997794926E-02      0.9735000261E-02
          0                 7           1            10   10     1       0.3455554008E-04      10   10    1         0.8976399613E-03      0.4355022105E-02
          0                 8           1            10   10     1       0.1552630881E-04      10   10    1         0.4033230493E-03      0.1948725578E-02
          0                 9           1            10   10     1       0.6976190762E-05      10   10    1         0.1812189023E-03      0.8720935642E-03

    ------------------------------------------------
       NWT REQUIRED            9 OUTER ITERATIONS 
       AND A TOTAL OF         14 INNER ITERATIONS.
    ------------------------------------------------

 NO OUTPUT CONTROL FOR STRESS PERIOD   18   TIME STEP   11
 
 SOLVING FOR HEAD 
                                                   Max.-Head-Change                         Max.-Flux-Residual
  Residual-Control   Outer-Iter.   Inner-Iter.     Column Row Layer    Maximum-Head-Change  Column Row Layer    Maximum-Flux-Residual          L2-NORM 
          0                 1           2             2   13     1      -0.8089957904E-02       2   13    1        -0.4561096332E+00      0.1593828610E+01
          0                 2           2             2    3     1       0.1887378723E-02       3    2    1         0.5542309308E-01      0.3314353071E+00
          0                 3           2            10   10     1       0.8471376081E-03      10   10    1         0.2200581215E-01      0.1146619475E+00
          0                 4           2            10   10     1       0.3806324157E-03      10   10    1         0.9887569428E-02      0.4896232291E-01
          0                 5           2            10   10     1       0.1710240473E-03      10   10    1         0.4442641690E-02      0.2174908039E-01
          0                 6           1            10   10     1       0.7684368551E-04      10   10    1         0.1996147485E-02      0.9720336758E-02
          0                 7           1            10   10     1       0.3452699516E-04      10   10    1         0.8968990367E-03      0.4348714033E-02
          0                 8           1            10   10     1       0.1551347061E-04      10   10    1         0.4029898218E-03      0.1945996940E-02
          0                 9           1            10   10     1       0.6970416698E-05      10   10    1         0.1810690356E-03      0.8709079960E-03

    ------------------------------------------------
       NWT REQUIRED            9 OUTER ITERATIONS 
       AND A TOTAL OF         14 INNER ITERATIONS.
    ------------------------------------------------

 NO OUTPUT CONTROL FOR STRESS PERIOD   18   TIME STEP   12
 
 SOLVING FOR HEAD 
                                                   Max.-Head-Change                         Max.-Flux-Residual
  Residual-Control   Outer-Iter.   Inner-Iter.     Column Row Layer    Maximum-Head-Change  Column Row Layer    Maximum-Flux-Residual          L2-NORM 
          0                 1           2             2   13     1      -0.8948254738E-02       2   13    1        -0.5042685152E+00      0.1654206843E+01
          0                 2           2            10   10     1       0.1883892707E-02       3    2    1         0.5531783126E-01      0.3338696698E+00
          0                 3           2            10   10     1       0.8464631464E-03      10   10    1         0.2198830499E-01      0.1145835665E+00
          0                 4           2            10   10     1       0.3803290910E-03      10   10    1         0.9879695979E-02      0.4890398816E-01
          0                 5           2            10   10     1       0.1708876333E-03      10   10    1         0.4439100771E-02      0.2172308858E-01
          0                 6           1            10   10     1       0.7678233552E-04      10   10    1         0.1994555025E-02      0.9708844926E-02
          0                 7           1            10   10     1       0.3449940416E-04      10   10    1         0.8961828590E-03      0.4343629037E-02
          0                 8           1            10   10     1       0.1550106210E-04      10   10    1         0.4026677355E-03      0.1943745550E-02
          0                 9           1            10   10     1       0.6964835971E-05      10   10    1         0.1809241820E-03      0.8699106268E-03

    ------------------------------------------------
       NWT REQUIRED            9 OUTER ITERATIONS 
       AND A TOTAL OF         14 INNER ITERATIONS.
    ------------------------------------------------

 NO OUTPUT CONTROL FOR STRESS PERIOD   18   TIME STEP   13
 
 SOLVING FOR HEAD 
                                                   Max.-Head-Change                         Max.-Flux-Residual
  Residual-Control   Outer-Iter.   Inner-Iter.     Column Row Layer    Maximum-Head-Change  Column Row Layer    Maximum-Flux-Residual          L2-NORM 
          0                 1           2             2   13     1      -0.8572802880E-02       2   13    1        -0.4830085463E+00      0.1631178664E+01
          0                 2           2             5   13     1       0.2867951663E-02       5   13    1         0.1663075179E+00      0.4451048436E+00
          0                 3           2            10   10     1       0.8457669866E-03      10   10    1         0.2197023480E-01      0.1173257465E+00
          0                 4           2            10   10     1       0.3800160043E-03      10   10    1         0.9871569206E-02      0.4889642527E-01
          0                 5           2            10   10     1       0.1707468278E-03      10   10    1         0.4435445890E-02      0.2170153538E-01
          0                 6           1            10   10     1       0.7671901066E-04      10   10    1         0.1992911304E-02      0.9699045685E-02
          0                 7           1            10   10     1       0.3447092477E-04      10   10    1         0.8954436242E-03      0.4339283544E-02
          0                 8           1            10   10     1       0.1548825416E-04      10   10    1         0.4023352805E-03      0.1941821655E-02
          0                 9           1            10   10     1       0.6959075913E-05      10   10    1         0.1807746674E-03      0.8690633946E-03

    ------------------------------------------------
       NWT REQUIRED            9 OUTER ITERATIONS 
       AND A TOTAL OF         14 INNER ITERATIONS.
    ------------------------------------------------

 NO OUTPUT CONTROL FOR STRESS PERIOD   18   TIME STEP   14
 
 SOLVING FOR HEAD 
                                                   Max.-Head-Change                         Max.-Flux-Residual
  Residual-Control   Outer-Iter.   Inner-Iter.     Column Row Layer    Maximum-Head-Change  Column Row Layer    Maximum-Flux-Residual          L2-NORM 
          0                 1           2             2   13     1      -0.8069231375E-02       2   13    1        -0.4545917329E+00      0.1600371711E+01
          0                 2           2             5   13     1       0.2834206111E-02       5   13    1         0.1643630261E+00      0.4416498734E+00
          0                 3           2            10   10     1       0.8450716091E-03      10   10    1         0.2195218499E-01      0.1171171950E+00
          0                 4           2            10   10     1       0.3797032684E-03      10   10    1         0.9863451566E-02      0.4884249146E-01
          0                 5           2            10   10     1       0.1706061786E-03      10   10    1         0.4431795090E-02      0.2167818356E-01
          0                 6           1            10   10     1       0.7665575582E-04      10   10    1         0.1991269409E-02      0.9688713941E-02
          0                 7           1            10   10     1       0.3444247664E-04      10   10    1         0.8947052020E-03      0.4334707122E-02
          0                 8           1            10   10     1       0.1547545998E-04      10   10    1         0.4020031838E-03      0.1939791192E-02
          0                 9           1            10   10     1       0.6953321859E-05      10   10    1         0.1806253082E-03      0.8681569665E-03

    ------------------------------------------------
       NWT REQUIRED            9 OUTER ITERATIONS 
       AND A TOTAL OF         14 INNER ITERATIONS.
    ------------------------------------------------

 NO OUTPUT CONTROL FOR STRESS PERIOD   18   TIME STEP   15
 
 SOLVING FOR HEAD 
                                                   Max.-Head-Change                         Max.-Flux-Residual
  Residual-Control   Outer-Iter.   Inner-Iter.     Column Row Layer    Maximum-Head-Change  Column Row Layer    Maximum-Flux-Residual          L2-NORM 
          0                 1           2             2   13     1      -0.7603880523E-02       2   13    1        -0.4283303468E+00      0.1573031886E+01
          0                 2           2             5   13     1       0.2803583647E-02       5   13    1         0.1625988811E+00      0.4384837986E+00
          0                 3           2            10   10     1       0.8443770125E-03      10   10    1         0.2193415546E-01      0.1169221799E+00
          0                 4           2            10   10     1       0.3793908832E-03      10   10    1         0.9855343043E-02      0.4879055456E-01
          0                 5           2            10   10     1       0.1704656879E-03      10   10    1         0.4428148401E-02      0.2165563572E-01
          0                 6           1            10   10     1       0.7659257177E-04      10   10    1         0.1989629359E-02      0.9678725210E-02
          0                 7           1            10   10     1       0.3441406077E-04      10   10    1         0.8939676143E-03      0.4330277957E-02
          0                 8           1            10   10     1       0.1546268006E-04      10   10    1         0.4016714613E-03      0.1937826552E-02
          0                 9           1            10   10     1       0.6947574307E-05      10   10    1         0.1804761230E-03      0.8672852173E-03

    ------------------------------------------------
       NWT REQUIRED            9 OUTER ITERATIONS 
       AND A TOTAL OF         14 INNER ITERATIONS.
    ------------------------------------------------

 NO OUTPUT CONTROL FOR STRESS PERIOD   18   TIME STEP   16
 
 SOLVING FOR HEAD 
                                                   Max.-Head-Change                         Max.-Flux-Residual
  Residual-Control   Outer-Iter.   Inner-Iter.     Column Row Layer    Maximum-Head-Change  Column Row Layer    Maximum-Flux-Residual          L2-NORM 
          0                 1           2             2   13     1      -0.7173896266E-02       2   13    1        -0.4040689637E+00      0.1547542937E+01
          0                 2           2             5   13     1       0.2775778003E-02       5   13    1         0.1609974746E+00      0.4354353723E+00
          0                 3           2            10   10     1       0.8437056804E-03      10   10    1         0.2191672965E-01      0.1167184853E+00
          0                 4           2            10   10     1       0.3790889644E-03      10   10    1         0.9847506117E-02      0.4873807955E-01
          0                 5           2            10   10     1       0.1703299052E-03      10   10    1         0.4424623884E-02      0.2163331719E-01
          0                 6           1            10   10     1       0.7653150616E-04      10   10    1         0.1988044271E-02      0.9668870145E-02
          0                 7           1            10   10     1       0.3438659708E-04      10   10    1         0.8932547422E-03      0.4325911658E-02
          0                 8           1            10   10     1       0.1545032908E-04      10   10    1         0.4013508618E-03      0.1935892756E-02
          0                 9           1            10   10     1       0.6942019341E-05      10   10    1         0.1803319351E-03      0.8664248183E-03

    ------------------------------------------------
       NWT REQUIRED            9 OUTER ITERATIONS 
       AND A TOTAL OF         14 INNER ITERATIONS.
    ------------------------------------------------

 NO OUTPUT CONTROL FOR STRESS PERIOD   18   TIME STEP   17
 
 SOLVING FOR HEAD 
                                                   Max.-Head-Change                         Max.-Flux-Residual
  Residual-Control   Outer-Iter.   Inner-Iter.     Column Row Layer    Maximum-Head-Change  Column Row Layer    Maximum-Flux-Residual          L2-NORM 
          0                 1           2             2   13     1      -0.6776515892E-02       2   13    1        -0.3816526976E+00      0.1525771761E+01
          0                 2           2             5   13     1       0.2750486301E-02       5   13    1         0.1595433660E+00      0.4327622551E+00
          0                 3           2            10   10     1       0.8430126317E-03      10   10    1         0.2189874032E-01      0.1165440441E+00
          0                 4           2            10   10     1       0.3787772743E-03      10   10    1         0.9839415644E-02      0.4868925071E-01
          0                 5           2            10   10     1       0.1701897269E-03      10   10    1         0.4420985299E-02      0.2161194276E-01
          0                 6           1            10   10     1       0.7646846242E-04      10   10    1         0.1986407860E-02      0.9659369124E-02
          0                 7           1            10   10     1       0.3435824424E-04      10   10    1         0.8925187918E-03      0.4321687206E-02
          0                 8           1            10   10     1       0.1543757717E-04      10   10    1         0.4010198764E-03      0.1934013225E-02
          0                 9           1            10   10     1       0.6936285045E-05      10   10    1         0.1801830884E-03      0.8655931162E-03

    ------------------------------------------------
       NWT REQUIRED            9 OUTER ITERATIONS 
       AND A TOTAL OF         14 INNER ITERATIONS.
    ------------------------------------------------

 NO OUTPUT CONTROL FOR STRESS PERIOD   18   TIME STEP   18
 
 SOLVING FOR HEAD 
                                                   Max.-Head-Change                         Max.-Flux-Residual
  Residual-Control   Outer-Iter.   Inner-Iter.     Column Row Layer    Maximum-Head-Change  Column Row Layer    Maximum-Flux-Residual          L2-NORM 
          0                 1           2             2   13     1      -0.6409323166E-02       2   13    1        -0.3609418460E+00      0.1506611725E+01
          0                 2           2             5   13     1       0.2727555732E-02       5   13    1         0.1582233368E+00      0.4303267448E+00
          0                 3           2            10   10     1       0.8423203569E-03      10   10    1         0.2188077110E-01      0.1163798091E+00
          0                 4           2            10   10     1       0.3784659331E-03      10   10    1         0.9831334227E-02      0.4864123987E-01
          0                 5           2            10   10     1       0.1700497050E-03      10   10    1         0.4417350783E-02      0.2159086878E-01
          0                 6           1            10   10     1       0.7640548946E-04      10   10    1         0.1984773284E-02      0.9649991805E-02
          0                 7           1            10   10     1       0.3432992292E-04      10   10    1         0.8917836620E-03      0.4317514626E-02
          0                 8           1            10   10     1       0.1542484026E-04      10   10    1         0.4006892606E-03      0.1932157352E-02
          0                 9           1            10   10     1       0.6930556501E-05      10   10    1         0.1800343922E-03      0.8647697369E-03

    ------------------------------------------------
       NWT REQUIRED            9 OUTER ITERATIONS 
       AND A TOTAL OF         14 INNER ITERATIONS.
    ------------------------------------------------

 NO OUTPUT CONTROL FOR STRESS PERIOD   18   TIME STEP   19
 
 SOLVING FOR HEAD 
                                                   Max.-Head-Change                         Max.-Flux-Residual
  Residual-Control   Outer-Iter.   Inner-Iter.     Column Row Layer    Maximum-Head-Change  Column Row Layer    Maximum-Flux-Residual          L2-NORM 
          0                 1           2             2   13     1      -0.6069556104E-02       2   13    1        -0.3417799926E+00      0.1489377369E+01
          0                 2           2             5   13     1       0.2706739861E-02       5   13    1         0.1570253309E+00      0.4280535941E+00
          0                 3           2            10   10     1       0.8416288574E-03      10   10    1         0.2186282199E-01      0.1162173487E+00
          0                 4           2            10   10     1       0.3781549403E-03      10   10    1         0.9823261848E-02      0.4859300123E-01
          0                 5           2            10   10     1       0.1699098402E-03      10   10    1         0.4413720339E-02      0.2156974858E-01
          0                 6           1            10   10     1       0.7634258703E-04      10   10    1         0.1983140542E-02      0.9640596308E-02
          0                 7           1            10   10     1       0.3430163361E-04      10   10    1         0.8910493604E-03      0.4313333532E-02
          0                 8           1            10   10     1       0.1541211761E-04      10   10    1         0.4003590188E-03      0.1930295831E-02
          0                 9           1            10   10     1       0.6924834711E-05      10   10    1         0.1798858711E-03      0.8639380327E-03

    ------------------------------------------------
       NWT REQUIRED            9 OUTER ITERATIONS 
       AND A TOTAL OF         14 INNER ITERATIONS.
    ------------------------------------------------

 NO OUTPUT CONTROL FOR STRESS PERIOD   18   TIME STEP   20
 
 SOLVING FOR HEAD 
                                                   Max.-Head-Change                         Max.-Flux-Residual
  Residual-Control   Outer-Iter.   Inner-Iter.     Column Row Layer    Maximum-Head-Change  Column Row Layer    Maximum-Flux-Residual          L2-NORM 
          0                 1           2             3    2     1       0.6013847101E-02       2   13    1        -0.3240728815E+00      0.1473965543E+01
          0                 2           2             5   13     1       0.2314025236E-02       5   13    1         0.1342005987E+00      0.4023749780E+00
          0                 3           2            10   10     1       0.8409381314E-03      10   10    1         0.2184489297E-01      0.1154257629E+00
          0                 4           2            10   10     1       0.3778442951E-03      10   10    1         0.9815198500E-02      0.4853773515E-01
          0                 5           2            10   10     1       0.1697701316E-03      10   10    1         0.4410093954E-02      0.2154947908E-01
          0                 6           1            10   10     1       0.7627975514E-04      10   10    1         0.1981509624E-02      0.9631623800E-02
          0                 7           1            10   10     1       0.3427337556E-04      10   10    1         0.8903158745E-03      0.4309338724E-02
          0                 8           1            10   10     1       0.1539940897E-04      10   10    1         0.4000291442E-03      0.1928516785E-02
          0                 9           1            10   10     1       0.6919119174E-05      10   10    1         0.1797375142E-03      0.8631461486E-03

    ------------------------------------------------
       NWT REQUIRED            9 OUTER ITERATIONS 
       AND A TOTAL OF         14 INNER ITERATIONS.
    ------------------------------------------------

 NO OUTPUT CONTROL FOR STRESS PERIOD   18   TIME STEP   21
 
 SOLVING FOR HEAD 
                                                   Max.-Head-Change                         Max.-Flux-Residual
  Residual-Control   Outer-Iter.   Inner-Iter.     Column Row Layer    Maximum-Head-Change  Column Row Layer    Maximum-Flux-Residual          L2-NORM 
          0                 1           2             3    2     1       0.6004140220E-02       3    2    1         0.3121419481E+00      0.1459225299E+01
          0                 2           2             5   13     1       0.2667268639E-02       5   13    1         0.1547520836E+00      0.4238799267E+00
          0                 3           2             7    6     1      -0.7247893673E-01       7    6    1        -0.3994321174E+01      0.3995998790E+01
          0                 4           2             7    6     1       0.7461591615E-01       7    6    1         0.4150011759E+01      0.4150363441E+01
     PET DIFF ERROR     6    7   -0.1493351014E-09    0.9999999717E-08
     PET DIFF ERROR     6    8   -0.1493351068E-09    0.9999999717E-08
          0                 5           2             7    6     1      -0.7031302242E-01       7    6    1        -0.3946542610E+01      0.3946662246E+01
          0                 6           2             7    6     1       0.6870536586E-01       7    6    1         0.3891519689E+01      0.3891585248E+01
     PET DIFF ERROR     6    7   -0.2227740674E-09    0.9999999717E-08
     PET DIFF ERROR     6    8   -0.2227740721E-09    0.9999999717E-08
          0                 7           2             7    6     1      -0.6765025299E-01       7    6    1        -0.3866810038E+01      0.3866864299E+01
          0                 8           2             7    6     1       0.6636824707E-01       7    6    1         0.3828128533E+01      0.3828179084E+01
     PET DIFF ERROR     6    7   -0.3367937083E-09    0.9999999717E-08
     PET DIFF ERROR     6    8   -0.3367937051E-09    0.9999999717E-08
          0                 9           2             7    6     1      -0.6526684973E-01       7    6    1        -0.3798968965E+01      0.3799017030E+01
          0                10           2             7    6     1       0.6404796516E-01       7    6    1         0.3761955813E+01      0.3762002167E+01
     PET DIFF ERROR     6    7   -0.3605313053E-09    0.9999999717E-08
     PET DIFF ERROR     6    8   -0.3605312743E-09    0.9999999717E-08
                                                   Max.-Head-Change                         Max.-Flux-Residual
  Residual-Control   Outer-Iter.   Inner-Iter.     Column Row Layer    Maximum-Head-Change  Column Row Layer    Maximum-Flux-Residual          L2-NORM 
          0                11           2             7    6     1      -0.6291689020E-01       7    6    1        -0.3729192391E+01      0.3729236829E+01
          0                12           2             7    6     1       0.6176208956E-01       7    6    1         0.3694001786E+01      0.3694044618E+01
          0                13           2             7    6     1       0.2450717538E-02       7    6    1         0.1461362641E+00      0.1471631645E+00
          0                14           2             7    6     1       0.6179017166E-03       7    6    1         0.3683137113E-01      0.3716126003E-01
          0                15           2             7    6     1       0.1452902690E-03       7    6    1         0.8654951495E-02      0.8764114744E-02
          0                16           1             7    6     1       0.3418306537E-04       7    6    1         0.2035018759E-02      0.2069443739E-02
          0                17           1             7    6     1       0.8047167547E-05       7    6    1         0.4787728574E-03      0.4892526813E-03

    ------------------------------------------------
       NWT REQUIRED           17 OUTER ITERATIONS 
       AND A TOTAL OF         32 INNER ITERATIONS.
    ------------------------------------------------

 NO OUTPUT CONTROL FOR STRESS PERIOD   18   TIME STEP   22
 
 SOLVING FOR HEAD 
                                                   Max.-Head-Change                         Max.-Flux-Residual
  Residual-Control   Outer-Iter.   Inner-Iter.     Column Row Layer    Maximum-Head-Change  Column Row Layer    Maximum-Flux-Residual          L2-NORM 
          0                 1           2             3    2     1       0.5994545607E-02       3    2    1         0.3116361959E+00      0.1446794857E+01
          0                 2           2             5   13     1       0.2551495398E-02       5   13    1         0.1480295550E+00      0.4156718461E+00
          0                 3           2             7    6     1      -0.6927893956E-01       7    6    1        -0.3817983771E+01      0.3819729278E+01
          0                 4           2             7    6     1       0.7113560017E-01       7    6    1         0.3956445777E+01      0.3956815508E+01
     PET DIFF ERROR     6    7   -0.1281342855E-09    0.9999999717E-08
     PET DIFF ERROR     6    8   -0.1281342265E-09    0.9999999717E-08
          0                 5           2             7    6     1      -0.6573686615E-01       7    6    1        -0.3689703406E+01      0.3689825390E+01
          0                 6           2             7    6     1       0.6415110982E-01       7    6    1         0.3633566595E+01      0.3633629147E+01
          0                 7           2             7    5     1       0.1732977391E-03       7    5    1         0.9815419767E-02      0.2095887331E-01
          0                 8           1             7    5     1       0.3356391330E-04       7    5    1         0.1879301957E-02      0.4049118551E-02
          0                 9           1            10   10     1       0.6907690850E-05       7    5    1         0.3651560883E-03      0.1104525126E-02

    ------------------------------------------------
       NWT REQUIRED            9 OUTER ITERATIONS 
       AND A TOTAL OF         16 INNER ITERATIONS.
    ------------------------------------------------

 NO OUTPUT CONTROL FOR STRESS PERIOD   18   TIME STEP   23
 
 SOLVING FOR HEAD 
                                                   Max.-Head-Change                         Max.-Flux-Residual
  Residual-Control   Outer-Iter.   Inner-Iter.     Column Row Layer    Maximum-Head-Change  Column Row Layer    Maximum-Flux-Residual          L2-NORM 
          0                 1           2             3    2     1       0.5985234914E-02       3    2    1         0.3111455462E+00      0.1435268319E+01
          0                 2           2             5   13     1       0.2634162854E-02       5   13    1         0.1528463590E+00      0.4202848420E+00
          0                 3           2             7    6     1      -0.7244947381E-01       7    6    1        -0.3992702397E+01      0.3994372664E+01
          0                 4           2             7    6     1       0.7458658896E-01       7    6    1         0.4148385641E+01      0.4148777296E+01
     PET DIFF ERROR     6    7   -0.3150327638E-09    0.9999999717E-08
     PET DIFF ERROR     6    8   -0.3150327615E-09    0.9999999717E-08
          0                 5           2             7    6     1      -0.6607658965E-01       7    6    1        -0.3708795904E+01      0.3708923201E+01
          0                 6           2             7    6     1       0.6421512258E-01       7    6    1         0.3637192365E+01      0.3637254555E+01
          0                 7           2             7    5     1       0.1735771130E-03       7    5    1         0.9834296799E-02      0.2109309274E-01
          0                 8           1             7    5     1       0.3361065274E-04       7    5    1         0.1882176153E-02      0.4053609961E-02
          0                 9           1            10   10     1       0.6901811489E-05       7    5    1         0.3656515123E-03      0.1104536154E-02

    ------------------------------------------------
       NWT REQUIRED            9 OUTER ITERATIONS 
       AND A TOTAL OF         16 INNER ITERATIONS.
    ------------------------------------------------

 NO OUTPUT CONTROL FOR STRESS PERIOD   18   TIME STEP   24
 
 SOLVING FOR HEAD 
                                                   Max.-Head-Change                         Max.-Flux-Residual
  Residual-Control   Outer-Iter.   Inner-Iter.     Column Row Layer    Maximum-Head-Change  Column Row Layer    Maximum-Flux-Residual          L2-NORM 
          0                 1           2             3    2     1       0.5976023744E-02       3    2    1         0.3106601804E+00      0.1424926889E+01
          0                 2           2             5   13     1       0.2620520155E-02       5   13    1         0.1520618047E+00      0.4187584249E+00
          0                 3           2             7    6     1      -0.7247557616E-01       7    6    1        -0.3994143209E+01      0.3995809429E+01
          0                 4           2             7    6     1       0.7461589140E-01       7    6    1         0.4150017885E+01      0.4150412494E+01
          0                 5           2             7    6     1      -0.1704466777E-02       7    6    1        -0.9619205700E-01      0.1009800478E+00
          0                 6           2             7    6     1      -0.2484814046E-03       7    6    1        -0.1402623578E-01      0.1732399460E-01
          0                 7           1             7    6     1      -0.4537199968E-04       7    6    1        -0.2558793933E-02      0.5027476488E-02
          0                 8           1            10   10     1       0.1534827402E-04       7    6    1        -0.4673914948E-03      0.1980635390E-02
          0                 9           1            10   10     1       0.6896121713E-05      10   10    1         0.1791405749E-03      0.8650594590E-03

    ------------------------------------------------
       NWT REQUIRED            9 OUTER ITERATIONS 
       AND A TOTAL OF         15 INNER ITERATIONS.
    ------------------------------------------------

 NO OUTPUT CONTROL FOR STRESS PERIOD   18   TIME STEP   25
 
 SOLVING FOR HEAD 
                                                   Max.-Head-Change                         Max.-Flux-Residual
  Residual-Control   Outer-Iter.   Inner-Iter.     Column Row Layer    Maximum-Head-Change  Column Row Layer    Maximum-Flux-Residual          L2-NORM 
          0                 1           2             3    2     1       0.5967086394E-02       3    2    1         0.3101892898E+00      0.1415801601E+01
          0                 2           2             5   13     1       0.2607405743E-02       5   13    1         0.1513073897E+00      0.4172978724E+00
          0                 3           2             7    6     1      -0.7247655838E-01       7    6    1        -0.3994199718E+01      0.3995862349E+01
          0                 4           2             7    6     1       0.7461804709E-01       7    6    1         0.4150140275E+01      0.4150536343E+01
          0                 5           2             7    6     1      -0.1642651953E-02       7    6    1        -0.9272304439E-01      0.9767773778E-01
          0                 6           2             7    6     1      -0.2999755600E-03       7    6    1        -0.1691661676E-01      0.1973469303E-01
          0                 7           1             7    6     1      -0.5485026804E-04       7    6    1        -0.3090377038E-02      0.5313425670E-02
          0                 8           1            10   10     1       0.1533563766E-04       7    6    1        -0.5652667710E-03      0.2004178551E-02
          0                 9           1            10   10     1       0.6890438690E-05      10   10    1         0.1789930587E-03      0.8662721341E-03

    ------------------------------------------------
       NWT REQUIRED            9 OUTER ITERATIONS 
       AND A TOTAL OF         15 INNER ITERATIONS.
    ------------------------------------------------

 NO OUTPUT CONTROL FOR STRESS PERIOD   18   TIME STEP   26
 
 SOLVING FOR HEAD 
                                                   Max.-Head-Change                         Max.-Flux-Residual
  Residual-Control   Outer-Iter.   Inner-Iter.     Column Row Layer    Maximum-Head-Change  Column Row Layer    Maximum-Flux-Residual          L2-NORM 
          0                 1           2             3    2     1       0.5958237834E-02       3    2    1         0.3097231718E+00      0.1407580448E+01
          0                 2           2             5   13     1       0.2595487821E-02       5   13    1         0.1506220844E+00      0.4159376841E+00
          0                 3           2             7    6     1      -0.7247925427E-01       7    6    1        -0.3994350653E+01      0.3996009660E+01
          0                 4           2             7    6     1       0.7462191832E-01       7    6    1         0.4150358077E+01      0.4150755562E+01
          0                 5           2             7    6     1      -0.1643701403E-02       7    6    1        -0.9278202842E-01      0.9773037420E-01
          0                 6           2             7    6     1      -0.3001684353E-03       7    6    1        -0.1692744533E-01      0.1973990284E-01
          0                 7           1             7    6     1      -0.5488576756E-04       7    6    1        -0.3092368029E-02      0.5311579291E-02
          0                 8           1            10   10     1       0.1532300880E-04       7    6    1        -0.5656333472E-03      0.2002698816E-02
          0                 9           1            10   10     1       0.6884758918E-05      10   10    1         0.1788456398E-03      0.8655455324E-03

    ------------------------------------------------
       NWT REQUIRED            9 OUTER ITERATIONS 
       AND A TOTAL OF         15 INNER ITERATIONS.
    ------------------------------------------------

 NO OUTPUT CONTROL FOR STRESS PERIOD   18   TIME STEP   27
 
 SOLVING FOR HEAD 
                                                   Max.-Head-Change                         Max.-Flux-Residual
  Residual-Control   Outer-Iter.   Inner-Iter.     Column Row Layer    Maximum-Head-Change  Column Row Layer    Maximum-Flux-Residual          L2-NORM 
          0                 1           2             3    2     1       0.5949562490E-02       3    2    1         0.3092662834E+00      0.1399843706E+01
          0                 2           2             5   13     1       0.2584502891E-02       5   13    1         0.1499906252E+00      0.4146235188E+00
          0                 3           2             7    6     1      -0.7247930291E-01       7    6    1        -0.3994355707E+01      0.3996011079E+01
          0                 4           2             7    6     1       0.7462293607E-01       7    6    1         0.4150417173E+01      0.4150803379E+01
     PET DIFF ERROR     6    7   -0.4641166405E-09    0.9999999717E-08
     PET DIFF ERROR     6    8   -0.4641165812E-09    0.9999999717E-08
          0                 5           2             7    6     1      -0.6638341029E-01       7    6    1        -0.3726024114E+01      0.3726150442E+01
          0                 6           2             7    6     1       0.6453763824E-01       7    6    1         0.3655468779E+01      0.3655531216E+01
          0                 7           2             7    5     1       0.1743347551E-03       7    5    1         0.9883106459E-02      0.2138041390E-01
          0                 8           1             7    5     1       0.3360622559E-04       7    5    1         0.1890090373E-02      0.4131868107E-02
          0                 9           1            10   10     1       0.6878905570E-05       7    5    1         0.3651872651E-03      0.1109057757E-02

    ------------------------------------------------
       NWT REQUIRED            9 OUTER ITERATIONS 
       AND A TOTAL OF         16 INNER ITERATIONS.
    ------------------------------------------------

 NO OUTPUT CONTROL FOR STRESS PERIOD   18   TIME STEP   28
 
 SOLVING FOR HEAD 
     PET DIFF ERROR     6    7   -0.2695823173E-09    0.9999999717E-08
     PET DIFF ERROR     6    8   -0.2695822531E-09    0.9999999717E-08
                                                   Max.-Head-Change                         Max.-Flux-Residual
  Residual-Control   Outer-Iter.   Inner-Iter.     Column Row Layer    Maximum-Head-Change  Column Row Layer    Maximum-Flux-Residual          L2-NORM 
          0                 1           2             3    2     1       0.5941055736E-02       3    2    1         0.3088183057E+00      0.1392997837E+01
          0                 2           2             5   13     1       0.2568332746E-02       5   13    1         0.1490570970E+00      0.4130417075E+00
          0                 3           2             7    6     1      -0.7227824087E-01       7    6    1        -0.3983278264E+01      0.3984934813E+01
          0                 4           2             7    6     1       0.7440665543E-01       7    6    1         0.4138390495E+01      0.4138778766E+01
     PET DIFF ERROR     6    7   -0.3334049875E-09    0.9999999717E-08
     PET DIFF ERROR     6    8   -0.3334049245E-09    0.9999999717E-08
          0                 5           2             7    6     1      -0.6605851385E-01       7    6    1        -0.3707791354E+01      0.3707917845E+01
          0                 6           2             7    6     1       0.6421008208E-01       7    6    1         0.3636917932E+01      0.3636980048E+01
          0                 7           2             7    5     1       0.1736801487E-03       7    5    1         0.9833562723E-02      0.2088065146E-01
          0                 8           1             7    5     1       0.3349190913E-04       7    5    1         0.1883627777E-02      0.4119391549E-02
          0                 9           1            10   10     1       0.6873238554E-05       7    5    1         0.3639468980E-03      0.1107216286E-02

    ------------------------------------------------
       NWT REQUIRED            9 OUTER ITERATIONS 
       AND A TOTAL OF         16 INNER ITERATIONS.
    ------------------------------------------------

 NO OUTPUT CONTROL FOR STRESS PERIOD   18   TIME STEP   29
 
 SOLVING FOR HEAD 
                                                   Max.-Head-Change                         Max.-Flux-Residual
  Residual-Control   Outer-Iter.   Inner-Iter.     Column Row Layer    Maximum-Head-Change  Column Row Layer    Maximum-Flux-Residual          L2-NORM 
          0                 1           2             2    2     1       0.7670067125E-02       2    2    1         0.3992560278E+00      0.1503317987E+01
          0                 2           2            10   10     1       0.1857708822E-02       2   13    1         0.8948527917E-01      0.3698742292E+00
          0                 3           2             7    6     1      -0.7247676310E-01       7    6    1        -0.3994231663E+01      0.3995882883E+01
          0                 4           2             7    6     1       0.7462024488E-01       7    6    1         0.4150270366E+01      0.4150656227E+01
          0                 5           2             7    6     1      -0.1643775055E-02       7    6    1        -0.9278670620E-01      0.9773218549E-01
          0                 6           2             7    6     1      -0.3001796089E-03       7    6    1        -0.1692816382E-01      0.1973396068E-01
          0                 7           1             7    6     1      -0.5488742242E-04       7    6    1        -0.3092476367E-02      0.5306247991E-02
          0                 8           1            10   10     1       0.1528440666E-04       7    6    1        -0.5656492438E-03      0.2000312913E-02
          0                 9           1            10   10     1       0.6867399211E-05      10   10    1         0.1783950141E-03      0.8679473566E-03

    ------------------------------------------------
       NWT REQUIRED            9 OUTER ITERATIONS 
       AND A TOTAL OF         15 INNER ITERATIONS.
    ------------------------------------------------

 NO OUTPUT CONTROL FOR STRESS PERIOD   18   TIME STEP   30



 STREAM LISTING     PERIOD     18   STEP       30

 LAYER ROW COL. STREAM  RCH.  FLOW INTO     FLOW TO   FLOW OUT OF   OVRLND.     DIRECT     STREAM       STREAM     STREAM     STREAM   STREAMBED  STREAMBED
                SEG.NO.  NO.  STRM. RCH.    AQUIFER    STRM. RCH.    RUNOFF     PRECIP       ET          HEAD       DEPTH      WIDTH   CONDCTNC.   GRADIENT

   1    1    1     1     1    5.4945E+01  3.5407E-01   5.4591E+01  0.000E+00  0.000E+00  0.000E+00  1.09451E+03  1.462E+00  1.763E+01  7.934E-02  1.487E+00
   1    2    2     1     2    5.4591E+01  5.4824E-01   5.4043E+01  0.000E+00  0.000E+00  0.000E+00  1.08952E+03  1.457E+00  1.757E+01  1.230E-01  1.486E+00
   1    3    3     1     3    5.4043E+01  4.6747E-01   5.3575E+01  0.000E+00  0.000E+00  0.000E+00  1.08387E+03  1.450E+00  1.751E+01  1.050E-01  1.483E+00
   1    3    4     1     4    5.3575E+01  4.3039E-01   5.3145E+01  0.000E+00  0.000E+00  0.000E+00  1.07885E+03  1.444E+00  1.745E+01  9.684E-02  1.481E+00
   1    4    5     2     1    5.1145E+01  3.7840E-01   5.0767E+01  0.000E+00  0.000E+00  0.000E+00  1.07379E+03  1.851E+00  1.200E+01  7.800E-02  1.617E+00
   1    5    6     2     2    5.0767E+01  2.9064E-01   5.0476E+01  0.000E+00  0.000E+00  0.000E+00  1.06835E+03  1.844E+00  1.200E+01  6.000E-02  1.615E+00
   1    6    6     2     3    5.0476E+01  2.9025E-01   5.0186E+01  0.000E+00  0.000E+00  0.000E+00  1.06363E+03  1.838E+00  1.200E+01  6.000E-02  1.613E+00
   1    7    6     2     4    5.0186E+01  2.8987E-01   4.9896E+01  0.000E+00  0.000E+00  0.000E+00  1.05891E+03  1.831E+00  1.200E+01  6.000E-02  1.610E+00
   1    8    6     2     5    4.9896E+01  2.8949E-01   4.9606E+01  0.000E+00  0.000E+00  0.000E+00  1.05418E+03  1.825E+00  1.200E+01  6.000E-02  1.608E+00
   1    3    5     3     1    2.0000E+00  2.8252E-01   1.7175E+00  0.000E+00  0.000E+00  0.000E+00  1.07555E+03  1.909E+00  9.636E+00  7.227E-02  1.955E+00
   1    3    6     3     2    1.7175E+00  2.4905E-01   1.4684E+00  0.000E+00  0.000E+00  0.000E+00  1.07264E+03  1.727E+00  8.909E+00  6.682E-02  1.864E+00
   1    3    7     3     3    1.4684E+00  1.9718E-01   1.2712E+00  0.000E+00  0.000E+00  0.000E+00  1.06987E+03  1.555E+00  8.218E+00  5.547E-02  1.777E+00
   1    4    8     3     4    1.2712E+00  2.2567E-01   1.0456E+00  0.000E+00  0.000E+00  0.000E+00  1.06682E+03  1.364E+00  7.455E+00  6.709E-02  1.682E+00
   1    5    8     3     5    1.0456E+00  1.5790E-01   8.8768E-01  0.000E+00  0.000E+00  0.000E+00  1.06362E+03  1.164E+00  6.655E+00  4.991E-02  1.582E+00
   1    6    8     3     6    8.8768E-01  5.5980E-02   8.3170E-01  0.000E+00  0.000E+00  0.000E+00  1.06158E+03  1.036E+00  6.145E+00  1.844E-02  1.518E+00
   1    5   10     4     1    1.0000E+01  9.0919E-02   9.9091E+00  0.000E+00  0.000E+00  0.000E+00  1.07836E+03  6.368E-01  1.000E+01  2.500E-02  1.212E+00
   1    5    9     4     2    9.9091E+00  1.8158E-01   9.7275E+00  0.000E+00  0.000E+00  0.000E+00  1.07154E+03  6.315E-01  1.000E+01  5.000E-02  1.211E+00
   1    6    8     4     3    9.7275E+00  1.2689E-01   9.6006E+00  0.000E+00  0.000E+00  0.000E+00  1.06381E+03  6.256E-01  1.000E+01  3.500E-02  1.209E+00
   1    6    8     5     1    1.0432E+01  2.2686E-01   1.0205E+01  0.000E+00  0.000E+00  0.000E+00  1.05868E+03  6.790E-01  1.542E+01  6.166E-02  1.226E+00
   1    7    7     5     2    1.0205E+01  2.7894E-01   9.9265E+00  0.000E+00  0.000E+00  0.000E+00  1.05417E+03  6.732E-01  1.519E+01  7.594E-02  1.224E+00
   1    8    7     5     3    9.9265E+00  1.9221E-01   9.7343E+00  0.000E+00  0.000E+00  0.000E+00  1.04992E+03  6.676E-01  1.497E+01  5.241E-02  1.223E+00
   1    8    6     5     4    9.7343E+00  1.3577E-01   9.5985E+00  0.000E+00  0.000E+00  0.000E+00  1.04691E+03  6.637E-01  1.482E+01  3.706E-02  1.221E+00
   1    9    6     6     1    5.8678E+01  3.0205E-01   5.8376E+01  0.000E+00  0.000E+00  0.000E+00  1.04476E+03  2.034E+00  1.200E+01  6.000E-02  1.678E+00
   1   10    7     6     2    5.8376E+01  3.0167E-01   5.8075E+01  0.000E+00  0.000E+00  0.000E+00  1.04021E+03  2.028E+00  1.200E+01  6.000E-02  1.676E+00
   1   11    7     6     3    5.8075E+01  3.0129E-01   5.7773E+01  0.000E+00  0.000E+00  0.000E+00  1.03566E+03  2.022E+00  1.200E+01  6.000E-02  1.674E+00
   1   12    7     6     4    5.7773E+01  2.9954E-01   5.7474E+01  0.000E+00  0.000E+00  0.000E+00  1.03111E+03  2.015E+00  1.200E+01  6.000E-02  1.664E+00
   1   13    7     6     5    5.7474E+01  6.5077E-03   5.7467E+01  0.000E+00  0.000E+00  0.000E+00  1.02792E+03  2.012E+00  1.200E+01  2.400E-02  9.038E-02
   1   14    9     7     1    1.5000E+02  1.1525E+00   1.4885E+02  0.000E+00  0.000E+00  0.000E+00  1.03987E+03  2.288E+00  5.530E+01  5.593E-01  6.869E-01
   1   13    8     7     2    1.4885E+02  1.5452E+00   1.4730E+02  0.000E+00  0.000E+00  0.000E+00  1.03478E+03  2.281E+00  5.526E+01  6.149E-01  8.377E-01
   1   13    7     7     3    1.4730E+02  1.1414E+00   1.4616E+02  0.000E+00  0.000E+00  0.000E+00  1.02969E+03  2.274E+00  5.523E+01  5.586E-01  6.811E-01
   1   13    6     8     1    2.0363E+02  7.3504E-01   2.0289E+02  0.000E+00  0.000E+00  0.000E+00  1.02503E+03  3.157E+00  4.577E+01  4.664E-01  5.253E-01
   1   13    5     8     2    2.0289E+02  1.0344E-02   2.0288E+02  0.000E+00  0.000E+00  0.000E+00  1.01878E+03  3.155E+00  4.574E+01  4.661E-01  7.397E-03
   1   13    4     8     3    2.0288E+02 -3.0172E+00   2.0590E+02  0.000E+00  0.000E+00  0.000E+00  1.01254E+03  3.163E+00  4.587E+01  4.674E+00 -2.152E-01
   1   13    3     8     4    2.0590E+02 -3.8993E+00   2.0980E+02  0.000E+00  0.000E+00  0.000E+00  1.00631E+03  3.183E+00  4.616E+01  4.704E+00 -2.763E-01
   1   13    2     8     5    2.0980E+02 -2.3370E+00   2.1214E+02  0.000E+00  0.000E+00  0.000E+00  1.00008E+03  3.201E+00  4.642E+01  4.730E+00 -1.647E-01
   1   13    1     8     6    2.1214E+02 -1.7864E+00   2.1392E+02  0.000E+00  0.000E+00  0.000E+00  9.95088E+02  3.213E+00  4.659E+01  2.848E+00 -2.091E-01
   1    6    8     9     1    5.2671E-01  0.0000E+00   5.2671E-01  0.000E+00  0.000E+00  0.000E+00  1.07859E+03  9.214E-02  4.000E+00  0.000E+00  1.031E+00





UNSATURATED ZONE PACKAGE VOLUMETRIC BUDGET FOR  TIME STEP    30 STRESS PERIOD   18
  ------------------------------------------------------------------------------



     CUMULATIVE VOLUMES      L**3       RATES FOR THIS TIME STEP      L**3/T
     ------------------                 ------------------------

           IN:                                      IN:
           ---                                      ---
        INFILTRATION =    18598826.8673          INFILTRATION =           0.5267

          OUT:                                     OUT:
          ----                                     ----
              UZF ET =   545696600.2796                UZF ET =           0.5000
        UZF RECHARGE =  1038808515.6913          UZF RECHARGE =          20.3001

            IN - OUT = -1565906289.1036              IN - OUT =         -20.2734

          STORAGE:                                 STORAGE:
          --------                                 --------
      STORAGE CHANGE = -1565880250.4455        STORAGE CHANGE =         -20.2734

 PERCENT DISCREPANCY IS DIFFERENCE BETWEEN IN-OUT MINUS CHANGE IN STORAGE
 DIVIDED BY THE AVERAGE OF IN AND OUT TIMES 100

 PERCENT DISCREPANCY =          -0.00     PERCENT DISCREPANCY =           0.00






1
  VOLUMETRIC BUDGET FOR ENTIRE MODEL AT END OF TIME STEP   30, STRESS PERIOD  18
  ------------------------------------------------------------------------------

     CUMULATIVE VOLUMES      L**3       RATES FOR THIS TIME STEP      L**3/T
     ------------------                 ------------------------

           IN:                                      IN:
           ---                                      ---
             STORAGE     =    38535220.0000               STORAGE     =       8.9077E-02
       CONSTANT HEAD     =           0.0000         CONSTANT HEAD     =           0.0000
               WELLS     =           0.0000                 WELLS     =           0.0000
     HEAD DEP BOUNDS     =    12293061.0000       HEAD DEP BOUNDS     =           0.2733
      STREAM LEAKAGE     =   491763072.0000        STREAM LEAKAGE     =          11.5359
        UZF RECHARGE     =  1038808512.0000          UZF RECHARGE     =          20.3001
               GW ET     =           0.0000                 GW ET     =           0.0000
     SURFACE LEAKAGE     =           0.0000       SURFACE LEAKAGE     =           0.0000
    SUPPLEMENTARY WELLS  =           0.0000      SUPPLEMENTARY WELLS  =           0.0000

                TOTAL IN =  1581399808.0000                  TOTAL IN =          32.1984

          OUT:                                     OUT:
          ----                                     ----
             STORAGE     =   972115392.0000               STORAGE     =          19.1127
       CONSTANT HEAD     =           0.0000         CONSTANT HEAD     =           0.0000
               WELLS     =           0.0000                 WELLS     =           0.0000
     HEAD DEP BOUNDS     =    12947214.0000       HEAD DEP BOUNDS     =           0.2932
      STREAM LEAKAGE     =   504237824.0000        STREAM LEAKAGE     =          11.0399
        UZF RECHARGE     =           0.0000          UZF RECHARGE     =           0.0000
               GW ET     =    91907808.0000                 GW ET     =           1.7500
     SURFACE LEAKAGE     =           0.0000       SURFACE LEAKAGE     =           0.0000
    SUPPLEMENTARY WELLS  =       36673.0391      SUPPLEMENTARY WELLS  =           0.0000

               TOTAL OUT =  1581245056.0000                 TOTAL OUT =          32.1958

                IN - OUT =      154752.0000                  IN - OUT =       2.5482E-03

     PERCENT DISCREPANCY =           0.01         PERCENT DISCREPANCY =           0.01






         TIME SUMMARY AT END OF TIME STEP   30 IN STRESS PERIOD   18
                    SECONDS     MINUTES      HOURS       DAYS        YEARS
                    -----------------------------------------------------------
   TIME STEP LENGTH  87600.      1460.0      24.333      1.0139     2.77588E-03
 STRESS PERIOD TIME 2.62800E+06  43800.      730.00      30.417     8.32763E-02
         TOTAL TIME 4.47624E+07 7.46040E+05  12434.      518.08      1.4184    
1
1
                            STRESS PERIOD NO.   19, LENGTH =   2628000.    
                            -----------------------------------------------

                              NUMBER OF TIME STEPS =    30

                               MULTIPLIER FOR DELT =     1.000

                            INITIAL TIME STEP SIZE =   87600.00    

 WELL NO.  LAYER   ROW   COL   STRESS RATE         
 --------------------------------------------------
      1      1      6      4       0.000    
      2      1      6      7       0.000    
      3      1      7      4       0.000    
      4      1      7      5       0.000    
      5      1      8      4       0.000    
      6      1      8      5       0.000    
      7      1      9      4       0.000    
      8      1      9      5       0.000    
      9      1     10      4       0.000    
     10      1     10      5       0.000    

     10 WELLS

 REUSING NON-PARAMETER GHB CELLS FROM LAST STRESS PERIOD

      2 GHB CELLS

 REUSING STREAM SEGMENT DATA FROM LAST STRESS PERIOD



            AREAL INFILTRATION RATE
 READING ON UNIT   19 WITH FORMAT: (10F4.0)            

            1           2           3           4           5           6           7           8           9          10
 ........................................................................................................................
   1    0.000       0.000       0.000       0.000       0.000       0.000       0.000       0.000       0.000       0.000    
   2    0.000       0.000       0.000       0.000       0.000       0.000       0.000       0.000       0.000       0.000    
   3    0.000       0.000       0.000       0.000       0.000       0.000       0.000       0.000       0.000       0.000    
   4    0.000       0.000       0.000       0.000       0.000       0.000       0.000       0.000       0.000       0.000    
   5    0.000       0.000       0.000       0.000       0.000       0.000       0.000       0.000       0.000       0.000    
   6    0.000       0.000       0.000       0.000       0.000       0.000       0.000       0.000       0.000       0.000    
   7    0.000       0.000       0.000       0.000       0.000       0.000       0.000       0.000       0.000       0.000    
   8    0.000       0.000       0.000       0.000       0.000       0.000       0.000       0.000       0.000       0.000    
   9    0.000       0.000       0.000       0.000       0.000       0.000       0.000       0.000       0.000       0.000    
  10    0.000       0.000       0.000       0.000       0.000       0.000       0.000       0.000       0.000       0.000    
  11    0.000       0.000       0.000       0.000       0.000       0.000       0.000       0.000       0.000       0.000    
  12    0.000       0.000       0.000       0.000       0.000       0.000       0.000       0.000       0.000       0.000    
  13    0.000       0.000       0.000       0.000       0.000       0.000       0.000       0.000       0.000       0.000    
  14    0.000       0.000       0.000       0.000       0.000       0.000       0.000       0.000       0.000       0.000    
  15    0.000       0.000       0.000       0.000       0.000       0.000       0.000       0.000       0.000       0.000    

                  ET RATE =  3.000000E-08

 USING ET EXTINCTION DEPTH FROM PREVIOUS STRESS PERIOD. CURRENT PERIOD IS:      19

 USING EXTINCTION WATER CONTENT FROM PREVIOUS STRESS PERIOD. CURRENT PERIOD IS:      19

 PROCESSING AGO STRESS PERIOD DATA

 READING AGO STRESS PERIOD DATA

 READING IRRIGATION STREAM

 READING IRRIGATION WELL

 READING SUPPLEMENTAL WEL

 END PROCESSING AGO STRESS PERIOD DATA OPTIONS
 
 SOLVING FOR HEAD 
     PET DIFF ERROR     6    7   -0.1406135268E-07    0.2999999804E-07
     PET DIFF ERROR     6    8   -0.1406135214E-07    0.2999999804E-07
                                                   Max.-Head-Change                         Max.-Flux-Residual
  Residual-Control   Outer-Iter.   Inner-Iter.     Column Row Layer    Maximum-Head-Change  Column Row Layer    Maximum-Flux-Residual          L2-NORM 
          0                 1           2             7   13     1      -0.9046659499E-02       7   13    1        -0.4850823025E+00      0.1705118662E+01
          0                 2           2            10   10     1       0.1856190190E-02       2   13    1         0.9461605671E-01      0.3909456794E+00
          0                 3           2             7    6     1      -0.5326693706E-01       7    6    1        -0.2935651576E+01      0.2937925831E+01
          0                 4           2             7    6     1       0.5387236380E-01       7    6    1         0.2996305540E+01      0.2996738648E+01
          0                 5           2             7    6     1      -0.3877075248E-03       7    6    1        -0.2214747953E-01      0.3466425562E-01
          0                 6           1            10   10     1       0.7564903011E-04       7    6    1        -0.3971721074E-02      0.1070871548E-01
          0                 7           1            10   10     1       0.3398971812E-04      10   10    1         0.8829529728E-03      0.4365650580E-02
          0                 8           1            10   10     1       0.1527183933E-04      10   10    1         0.3967178082E-03      0.1922332932E-02
          0                 9           1            10   10     1       0.6861746952E-05      10   10    1         0.1782482991E-03      0.8581419846E-03

    ------------------------------------------------
       NWT REQUIRED            9 OUTER ITERATIONS 
       AND A TOTAL OF         14 INNER ITERATIONS.
    ------------------------------------------------

 NO OUTPUT CONTROL FOR STRESS PERIOD   19   TIME STEP    1
 
 SOLVING FOR HEAD 
                                                   Max.-Head-Change                         Max.-Flux-Residual
  Residual-Control   Outer-Iter.   Inner-Iter.     Column Row Layer    Maximum-Head-Change  Column Row Layer    Maximum-Flux-Residual          L2-NORM 
          0                 1           2             7   13     1      -0.8765079979E-02       7   13    1        -0.4699138689E+00      0.1688583847E+01
          0                 2           2             2   13     1       0.2097220711E-02       2   13    1         0.1196597593E+00      0.4130603347E+00
          0                 3           2             7    6     1      -0.7042390339E-01       7    6    1        -0.3881114101E+01      0.3882851796E+01
          0                 4           2             7    6     1       0.7239882482E-01       7    6    1         0.4026722615E+01      0.4031289067E+01
          0                 5           2             7    6     1      -0.1505521268E-02       7    6    1        -0.8501218500E-01      0.9133603589E-01
          0                 6           2             7    6     1      -0.2747962865E-03       7    6    1        -0.1550201251E-01      0.1853670756E-01
          0                 7           1             7    6     1      -0.5022160481E-04       7    6    1        -0.2830550547E-02      0.5156666088E-02
          0                 8           1            10   10     1       0.1525887658E-04       7    6    1        -0.5174884532E-03      0.1985959406E-02
          0                 9           1            10   10     1       0.6855917363E-05      10   10    1         0.1780969775E-03      0.8627821542E-03

    ------------------------------------------------
       NWT REQUIRED            9 OUTER ITERATIONS 
       AND A TOTAL OF         15 INNER ITERATIONS.
    ------------------------------------------------

 NO OUTPUT CONTROL FOR STRESS PERIOD   19   TIME STEP    2
 
 SOLVING FOR HEAD 
                                                   Max.-Head-Change                         Max.-Flux-Residual
  Residual-Control   Outer-Iter.   Inner-Iter.     Column Row Layer    Maximum-Head-Change  Column Row Layer    Maximum-Flux-Residual          L2-NORM 
          0                 1           2             7   13     1      -0.8495677880E-02       7   13    1        -0.4554028723E+00      0.1671312818E+01
          0                 2           2             2   13     1       0.2134349145E-02       2   13    1         0.1217971858E+00      0.4142261143E+00
          0                 3           2            10   10     1       0.8325958569E-03      10   10    1         0.2162835296E-01      0.1162335904E+00
          0                 4           2            10   10     1       0.3740925031E-03      10   10    1         0.9717813201E-02      0.4838111170E-01
          0                 5           2            10   10     1       0.1680828333E-03      10   10    1         0.4366296641E-02      0.2141180865E-01
          0                 6           1            10   10     1       0.7552092624E-04      10   10    1         0.1961812614E-02      0.9564837432E-02
          0                 7           1            10   10     1       0.3393210855E-04      10   10    1         0.8814575442E-03      0.4278867652E-02
          0                 8           1            10   10     1       0.1524593183E-04      10   10    1         0.3960452980E-03      0.1914750213E-02
          0                 9           1            10   10     1       0.6850096279E-05      10   10    1         0.1779458680E-03      0.8569433535E-03

    ------------------------------------------------
       NWT REQUIRED            9 OUTER ITERATIONS 
       AND A TOTAL OF         14 INNER ITERATIONS.
    ------------------------------------------------

 NO OUTPUT CONTROL FOR STRESS PERIOD   19   TIME STEP    3
 
 SOLVING FOR HEAD 
                                                   Max.-Head-Change                         Max.-Flux-Residual
  Residual-Control   Outer-Iter.   Inner-Iter.     Column Row Layer    Maximum-Head-Change  Column Row Layer    Maximum-Flux-Residual          L2-NORM 
          0                 1           2             2    2     1       0.8406351745E-02       7   13    1        -0.4412721885E+00      0.1658226165E+01
          0                 2           2             2   13     1       0.2127590179E-02       2   13    1         0.1214229697E+00      0.4129236313E+00
          0                 3           2            10   10     1       0.8319153986E-03      10   10    1         0.2161068951E-01      0.1161707932E+00
          0                 4           2            10   10     1       0.3737864965E-03      10   10    1         0.9709869808E-02      0.4832598831E-01
          0                 5           2            10   10     1       0.1679452209E-03      10   10    1         0.4362724451E-02      0.2165501528E-01
          0                 6           1            10   10     1       0.7545904151E-04      10   10    1         0.1960206182E-02      0.9620834161E-02
          0                 7           1            10   10     1       0.3390427894E-04      10   10    1         0.8807351269E-03      0.4290530321E-02
          0                 8           1            10   10     1       0.1523341677E-04       7    6    1        -0.4198736176E-03      0.1985765246E-02
          0                 9           1            10   10     1       0.6844468280E-05       7    6    1        -0.3756190254E-03      0.9946398870E-03

    ------------------------------------------------
       NWT REQUIRED            9 OUTER ITERATIONS 
       AND A TOTAL OF         14 INNER ITERATIONS.
    ------------------------------------------------

 NO OUTPUT CONTROL FOR STRESS PERIOD   19   TIME STEP    4
 
 SOLVING FOR HEAD 
                                                   Max.-Head-Change                         Max.-Flux-Residual
  Residual-Control   Outer-Iter.   Inner-Iter.     Column Row Layer    Maximum-Head-Change  Column Row Layer    Maximum-Flux-Residual          L2-NORM 
          0                 1           2             2    2     1       0.8379596605E-02       2    2    1         0.4363580913E+00      0.1645913767E+01
          0                 2           2            10   10     1       0.1849983885E-02       2   13    1         0.9607500011E-01      0.3884620073E+00
          0                 3           2            10   10     1       0.8312132561E-03      10   10    1         0.2159246332E-01      0.1155758685E+00
          0                 4           2            10   10     1       0.3734707358E-03      10   10    1         0.9701673268E-02      0.4829831112E-01
          0                 5           2            10   10     1       0.1678032201E-03      10   10    1         0.4359038376E-02      0.2140048739E-01
          0                 6           1            10   10     1       0.7539518291E-04      10   10    1         0.1958548519E-02      0.9561070237E-02
          0                 7           1            10   10     1       0.3387556094E-04      10   10    1         0.8799896588E-03      0.4277181728E-02
          0                 8           1            10   10     1       0.1522050204E-04      10   10    1         0.3953851828E-03      0.1913959635E-02
          0                 9           1            10   10     1       0.6838660452E-05      10   10    1         0.1776490126E-03      0.8565692636E-03

    ------------------------------------------------
       NWT REQUIRED            9 OUTER ITERATIONS 
       AND A TOTAL OF         14 INNER ITERATIONS.
    ------------------------------------------------

 NO OUTPUT CONTROL FOR STRESS PERIOD   19   TIME STEP    5
 
 SOLVING FOR HEAD 
     PET DIFF ERROR     6    7   -0.4885227993E-08    0.2999999804E-07
     PET DIFF ERROR     6    8   -0.4885227880E-08    0.2999999804E-07
                                                   Max.-Head-Change                         Max.-Flux-Residual
  Residual-Control   Outer-Iter.   Inner-Iter.     Column Row Layer    Maximum-Head-Change  Column Row Layer    Maximum-Flux-Residual          L2-NORM 
          0                 1           2             2    2     1       0.8353246466E-02       2    2    1         0.4349720990E+00      0.1633382032E+01
          0                 2           2             2   13     1       0.2014733784E-02       2   13    1         0.1149909575E+00      0.4048364646E+00
          0                 3           2             7    6     1      -0.6824102867E-01       7    6    1        -0.3760831519E+01      0.3762614870E+01
          0                 4           2             7    6     1       0.7003165514E-01       7    6    1         0.3895073458E+01      0.3895922340E+01
          0                 5           2             7    6     1      -0.1354200636E-02       7    6    1        -0.7650322231E-01      0.8220570802E-01
          0                 6           2             7    6     1      -0.2470123776E-03       7    6    1        -0.1394104296E-01      0.1721118556E-01
          0                 7           1             7    6     1      -0.4511427528E-04       7    6    1        -0.2543849014E-02      0.5001962289E-02
          0                 8           1            10   10     1       0.1520760381E-04       7    6    1        -0.4647696503E-03      0.1971598176E-02
          0                 9           1            10   10     1       0.6832860127E-05      10   10    1         0.1774984419E-03      0.8611221871E-03

    ------------------------------------------------
       NWT REQUIRED            9 OUTER ITERATIONS 
       AND A TOTAL OF         15 INNER ITERATIONS.
    ------------------------------------------------

 NO OUTPUT CONTROL FOR STRESS PERIOD   19   TIME STEP    6
 
 SOLVING FOR HEAD 
                                                   Max.-Head-Change                         Max.-Flux-Residual
  Residual-Control   Outer-Iter.   Inner-Iter.     Column Row Layer    Maximum-Head-Change  Column Row Layer    Maximum-Flux-Residual          L2-NORM 
          0                 1           2             2    2     1       0.8327381595E-02       2    2    1         0.4336117019E+00      0.1621549090E+01
          0                 2           2             2   13     1       0.2117872513E-02       2   13    1         0.1208984457E+00      0.4098649082E+00
          0                 3           2             7    6     1      -0.7247663615E-01       7    6    1        -0.3994243938E+01      0.3995926495E+01
          0                 4           2             7    6     1       0.7460455123E-01       7    6    1         0.4149413847E+01      0.4149960255E+01
          0                 5           2             7    6     1      -0.1629433645E-02       7    6    1        -0.9198221855E-01      0.9700266830E-01
          0                 6           2             7    6     1      -0.2975378095E-03       7    6    1        -0.1678007034E-01      0.1960374422E-01
          0                 7           1             7    6     1      -0.5440034091E-04       7    6    1        -0.3065189946E-02      0.5286555452E-02
          0                 8           1            10   10     1       0.1519472184E-04       7    6    1        -0.5606171158E-03      0.1996053115E-02
          0                 9           1            10   10     1       0.6827067305E-05      10   10    1         0.1773480707E-03      0.8628986942E-03

    ------------------------------------------------
       NWT REQUIRED            9 OUTER ITERATIONS 
       AND A TOTAL OF         15 INNER ITERATIONS.
    ------------------------------------------------

 NO OUTPUT CONTROL FOR STRESS PERIOD   19   TIME STEP    7
 
 SOLVING FOR HEAD 
     PET DIFF ERROR     6    7   -0.4883595717E-08    0.2999999804E-07
     PET DIFF ERROR     6    8   -0.4883595614E-08    0.2999999804E-07
                                                   Max.-Head-Change                         Max.-Flux-Residual
  Residual-Control   Outer-Iter.   Inner-Iter.     Column Row Layer    Maximum-Head-Change  Column Row Layer    Maximum-Flux-Residual          L2-NORM 
          0                 1           2             2    2     1       0.8301900611E-02       2    2    1         0.4322715924E+00      0.1611051426E+01
          0                 2           2             2   13     1       0.2003413746E-02       2   13    1         0.1143620099E+00      0.4027672900E+00
          0                 3           2             7    6     1      -0.6824239991E-01       7    6    1        -0.3760911294E+01      0.3762691879E+01
          0                 4           2             7    6     1       0.7003048854E-01       7    6    1         0.3895013209E+01      0.3895752308E+01
          0                 5           2             7    6     1      -0.1351895990E-02       7    6    1        -0.7637395947E-01      0.8205253469E-01
          0                 6           2             7    6     1      -0.2465878133E-03       7    6    1        -0.1391724346E-01      0.1718977257E-01
          0                 7           1             7    6     1      -0.4503600118E-04       7    6    1        -0.2539463810E-02      0.4998547579E-02
          0                 8           1            10   10     1       0.1518185663E-04       7    6    1        -0.4639609972E-03      0.1970733626E-02
          0                 9           1            10   10     1       0.6821281736E-05      10   10    1         0.1771978822E-03      0.8607691364E-03

    ------------------------------------------------
       NWT REQUIRED            9 OUTER ITERATIONS 
       AND A TOTAL OF         15 INNER ITERATIONS.
    ------------------------------------------------

 NO OUTPUT CONTROL FOR STRESS PERIOD   19   TIME STEP    8
 
 SOLVING FOR HEAD 
                                                   Max.-Head-Change                         Max.-Flux-Residual
  Residual-Control   Outer-Iter.   Inner-Iter.     Column Row Layer    Maximum-Head-Change  Column Row Layer    Maximum-Flux-Residual          L2-NORM 
          0                 1           2             2    2     1       0.8276974710E-02       2    2    1         0.4309606979E+00      0.1600929074E+01
          0                 2           2             2   13     1       0.2107682705E-02       2   13    1         0.1203326303E+00      0.4079323521E+00
          0                 3           2             7    6     1      -0.7247633084E-01       7    6    1        -0.3994231601E+01      0.3995911639E+01
          0                 4           2             7    6     1       0.7460178362E-01       7    6    1         0.4149264861E+01      0.4150064412E+01
          0                 5           2             7    6     1      -0.1627210597E-02       7    6    1        -0.9185754244E-01      0.9694754089E-01
          0                 6           2             7    6     1      -0.2971282434E-03       7    6    1        -0.1675711286E-01      0.1958411213E-01
          0                 7           1             7    6     1      -0.5432482751E-04       7    6    1        -0.3060959594E-02      0.5282900999E-02
          0                 8           1            10   10     1       0.1516900042E-04       7    6    1        -0.5598370051E-03      0.1995117844E-02
          0                 9           1            10   10     1       0.6815500169E-05      10   10    1         0.1770478075E-03      0.8625226454E-03

    ------------------------------------------------
       NWT REQUIRED            9 OUTER ITERATIONS 
       AND A TOTAL OF         15 INNER ITERATIONS.
    ------------------------------------------------

 NO OUTPUT CONTROL FOR STRESS PERIOD   19   TIME STEP    9
 
 SOLVING FOR HEAD 
                                                   Max.-Head-Change                         Max.-Flux-Residual
  Residual-Control   Outer-Iter.   Inner-Iter.     Column Row Layer    Maximum-Head-Change  Column Row Layer    Maximum-Flux-Residual          L2-NORM 
          0                 1           2             2    2     1       0.8252412312E-02       2    2    1         0.4296690134E+00      0.1591347640E+01
          0                 2           2             2   13     1       0.2102444206E-02       2   13    1         0.1200412528E+00      0.4070015350E+00
          0                 3           2             7    6     1      -0.7247619269E-01       7    6    1        -0.3994226232E+01      0.3995904887E+01
          0                 4           2             7    6     1       0.7460056447E-01       7    6    1         0.4149199534E+01      0.4149755764E+01
          0                 5           2             7    6     1      -0.1626235997E-02       7    6    1        -0.9180289007E-01      0.9683268363E-01
          0                 6           2             7    6     1      -0.2969486641E-03       7    6    1        -0.1674704768E-01      0.1957330556E-01
          0                 7           1             7    6     1      -0.5429171514E-04       7    6    1        -0.3059104686E-02      0.5281169315E-02
          0                 8           1            10   10     1       0.1515616723E-04       7    6    1        -0.5594949091E-03      0.1994660833E-02
          0                 9           1            10   10     1       0.6809729107E-05      10   10    1         0.1768979920E-03      0.8623369690E-03

    ------------------------------------------------
       NWT REQUIRED            9 OUTER ITERATIONS 
       AND A TOTAL OF         15 INNER ITERATIONS.
    ------------------------------------------------

 NO OUTPUT CONTROL FOR STRESS PERIOD   19   TIME STEP   10
 
 SOLVING FOR HEAD 
     PET DIFF ERROR     6    7   -0.4725425178E-08    0.2999999804E-07
     PET DIFF ERROR     6    8   -0.4725425076E-08    0.2999999804E-07
                                                   Max.-Head-Change                         Max.-Flux-Residual
  Residual-Control   Outer-Iter.   Inner-Iter.     Column Row Layer    Maximum-Head-Change  Column Row Layer    Maximum-Flux-Residual          L2-NORM 
          0                 1           2             2    2     1       0.8228294733E-02       2    2    1         0.4284007667E+00      0.1582849677E+01
          0                 2           2             2   13     1       0.1992843473E-02       2   13    1         0.1137827450E+00      0.4003329576E+00
          0                 3           2             7    6     1      -0.6840476714E-01       7    6    1        -0.3769865156E+01      0.3771637653E+01
          0                 4           2             7    6     1       0.7020262039E-01       7    6    1         0.3904593959E+01      0.3905322157E+01
          0                 5           2             7    6     1      -0.1359590171E-02       7    6    1        -0.7680712041E-01      0.8246296981E-01
          0                 6           2             7    6     1      -0.2479983924E-03       7    6    1        -0.1399657472E-01      0.1725223000E-01
          0                 7           1             7    6     1      -0.4529495189E-04       7    6    1        -0.2554013272E-02      0.5003862955E-02
          0                 8           1            10   10     1       0.1514335004E-04       7    6    1        -0.4666329262E-03      0.1970195678E-02
          0                 9           1            10   10     1       0.6803965548E-05      10   10    1         0.1767483730E-03      0.8602438837E-03

    ------------------------------------------------
       NWT REQUIRED            9 OUTER ITERATIONS 
       AND A TOTAL OF         15 INNER ITERATIONS.
    ------------------------------------------------

 NO OUTPUT CONTROL FOR STRESS PERIOD   19   TIME STEP   11
 
 SOLVING FOR HEAD 
                                                   Max.-Head-Change                         Max.-Flux-Residual
  Residual-Control   Outer-Iter.   Inner-Iter.     Column Row Layer    Maximum-Head-Change  Column Row Layer    Maximum-Flux-Residual          L2-NORM 
          0                 1           2             2    2     1       0.8204522281E-02       2    2    1         0.4271507557E+00      0.1574543823E+01
          0                 2           2             2   13     1       0.2093862792E-02       2   13    1         0.1195656629E+00      0.4053726594E+00
          0                 3           2             7    6     1      -0.7247594064E-01       7    6    1        -0.3994216852E+01      0.3995892798E+01
          0                 4           2             7    6     1       0.7459841640E-01       7    6    1         0.4149085031E+01      0.4149922807E+01
          0                 5           2             7    6     1      -0.1624527795E-02       7    6    1        -0.9170711306E-01      0.9681163769E-01
          0                 6           2             7    6     1      -0.2966338676E-03       7    6    1        -0.1672940532E-01      0.1955768382E-01
          0                 7           1             7    6     1      -0.5423366494E-04       7    6    1        -0.3055853002E-02      0.5277568018E-02
          0                 8           1            10   10     1       0.1513054935E-04       7    6    1        -0.5588952099E-03      0.1993511136E-02
          0                 9           1            10   10     1       0.6798209242E-05      10   10    1         0.1765989480E-03      0.8618482309E-03

    ------------------------------------------------
       NWT REQUIRED            9 OUTER ITERATIONS 
       AND A TOTAL OF         15 INNER ITERATIONS.
    ------------------------------------------------

 NO OUTPUT CONTROL FOR STRESS PERIOD   19   TIME STEP   12
 
 SOLVING FOR HEAD 
                                                   Max.-Head-Change                         Max.-Flux-Residual
  Residual-Control   Outer-Iter.   Inner-Iter.     Column Row Layer    Maximum-Head-Change  Column Row Layer    Maximum-Flux-Residual          L2-NORM 
          0                 1           2             2    2     1       0.8181265820E-02       2    2    1         0.4259279424E+00      0.1566550253E+01
          0                 2           2             2   13     1       0.2089570635E-02       2   13    1         0.1193368829E+00      0.4042030145E+00
     PET DIFF ERROR     6    7   -0.1190011174E-07    0.2999999804E-07
     PET DIFF ERROR     6    8   -0.1190011121E-07    0.2999999804E-07
          0                 3           2             7    6     1      -0.7247582670E-01       7    6    1        -0.3994212824E+01      0.3995883911E+01
          0                 4           2             7    6     1       0.7459747653E-01       7    6    1         0.4149035248E+01      0.4149539566E+01
     PET DIFF ERROR     6    7   -0.3498323530E-09    0.2999999804E-07
     PET DIFF ERROR     6    8   -0.3498322480E-09    0.2999999804E-07
          0                 5           2             7    6     1      -0.5883984449E-01       7    6    1        -0.3302702649E+01      0.3302845775E+01
          0                 6           2             7    6     1       0.5654004652E-01       7    6    1         0.3202503073E+01      0.3202559578E+01
          0                 7           2             7    6     1       0.2509317143E-03       7    6    1         0.1380657904E-01      0.2197412464E-01
          0                 8           1             7    6     1       0.4986323120E-04       7    6    1         0.2743884291E-02      0.4681796921E-02
          0                 9           1             7    6     1       0.9906912549E-05       7    6    1         0.5451952813E-03      0.1206189723E-02

    ------------------------------------------------
       NWT REQUIRED            9 OUTER ITERATIONS 
       AND A TOTAL OF         16 INNER ITERATIONS.
    ------------------------------------------------

 NO OUTPUT CONTROL FOR STRESS PERIOD   19   TIME STEP   13
 
 SOLVING FOR HEAD 
     PET DIFF ERROR     6    7   -0.4490612055E-08    0.2999999804E-07
     PET DIFF ERROR     6    8   -0.4490611785E-08    0.2999999804E-07
                                                   Max.-Head-Change                         Max.-Flux-Residual
  Residual-Control   Outer-Iter.   Inner-Iter.     Column Row Layer    Maximum-Head-Change  Column Row Layer    Maximum-Flux-Residual          L2-NORM 
          0                 1           2             2    2     1       0.8158335214E-02       2    2    1         0.4247223070E+00      0.1559295721E+01
          0                 2           2             2   13     1       0.1986855985E-02       2   13    1         0.1134581286E+00      0.3983095281E+00
          0                 3           2             7    6     1      -0.6864233919E-01       7    6    1        -0.3782963396E+01      0.3784724689E+01
          0                 4           2             7    6     1       0.7045664658E-01       7    6    1         0.3918729639E+01      0.3919719476E+01
          0                 5           2             7    6     1      -0.1372807819E-02       7    6    1        -0.7755085216E-01      0.8324357811E-01
          0                 6           2             7    6     1      -0.2504232432E-03       7    6    1        -0.1413288592E-01      0.1736105745E-01
          0                 7           1             7    6     1      -0.4574037195E-04       7    6    1        -0.2579029380E-02      0.5013072548E-02
          0                 8           1            10   10     1       0.1510499101E-04       7    6    1        -0.4712297045E-03      0.1969342415E-02
          0                 9           1            10   10     1       0.6786715890E-05      10   10    1         0.1763005908E-03      0.8594090667E-03

    ------------------------------------------------
       NWT REQUIRED            9 OUTER ITERATIONS 
       AND A TOTAL OF         15 INNER ITERATIONS.
    ------------------------------------------------

 NO OUTPUT CONTROL FOR STRESS PERIOD   19   TIME STEP   14
 
 SOLVING FOR HEAD 
                                                   Max.-Head-Change                         Max.-Flux-Residual
  Residual-Control   Outer-Iter.   Inner-Iter.     Column Row Layer    Maximum-Head-Change  Column Row Layer    Maximum-Flux-Residual          L2-NORM 
          0                 1           2             2    2     1       0.8135812841E-02       2    2    1         0.4235381992E+00      0.1551992832E+01
          0                 2           2             2   13     1       0.2081327471E-02       2   13    1         0.1188652132E+00      0.4030383556E+00
     PET DIFF ERROR     6    7   -0.9706803660E-08    0.2999999804E-07
     PET DIFF ERROR     6    8   -0.9706803198E-08    0.2999999804E-07
          0                 3           2             7    6     1      -0.7247560981E-01       7    6    1        -0.3994205408E+01      0.3995876563E+01
          0                 4           2             7    6     1       0.7459574461E-01       7    6    1         0.4148943907E+01      0.4149369588E+01
     PET DIFF ERROR     6    7   -0.2358395010E-08    0.2999999804E-07
     PET DIFF ERROR     6    8   -0.2358394986E-08    0.2999999804E-07
          0                 5           2             7    6     1      -0.6266884606E-01       7    6    1        -0.3517595196E+01      0.3517728962E+01
          0                 6           2             7    6     1       0.6060065994E-01       7    6    1         0.3432507588E+01      0.3432570571E+01
     PET DIFF ERROR     6    7   -0.1214818005E-08    0.2999999804E-07
     PET DIFF ERROR     6    8   -0.1214817909E-08    0.2999999804E-07
          0                 7           2             7    6     1      -0.5808939907E-01       7    6    1        -0.3320380219E+01      0.3320430216E+01
          0                 8           2             7    6     1       0.5689331342E-01       7    6    1         0.3281660159E+01      0.3281704134E+01
          0                 9           2             7    6     1       0.1013434925E-02       7    6    1         0.5804808885E-01      0.6032062140E-01
          0                10           2             7    6     1       0.2105693697E-03       7    6    1         0.1205268362E-01      0.1262663566E-01
                                                   Max.-Head-Change                         Max.-Flux-Residual
  Residual-Control   Outer-Iter.   Inner-Iter.     Column Row Layer    Maximum-Head-Change  Column Row Layer    Maximum-Flux-Residual          L2-NORM 
          0                11           1             7    6     1       0.4378622660E-04       7    6    1         0.2504510943E-02      0.2650460404E-02
          0                12           1             7    6     1       0.9112184276E-05       7    6    1         0.5208407078E-03      0.5605185826E-03

    ------------------------------------------------
       NWT REQUIRED           12 OUTER ITERATIONS 
       AND A TOTAL OF         22 INNER ITERATIONS.
    ------------------------------------------------

 NO OUTPUT CONTROL FOR STRESS PERIOD   19   TIME STEP   15
 
 SOLVING FOR HEAD 
     PET DIFF ERROR     6    7   -0.4891200685E-08    0.2999999804E-07
     PET DIFF ERROR     6    8   -0.4891200373E-08    0.2999999804E-07
                                                   Max.-Head-Change                         Max.-Flux-Residual
  Residual-Control   Outer-Iter.   Inner-Iter.     Column Row Layer    Maximum-Head-Change  Column Row Layer    Maximum-Flux-Residual          L2-NORM 
          0                 1           2             2    2     1       0.8113699967E-02       2    2    1         0.4223756853E+00      0.1545866434E+01
          0                 2           2             2   13     1       0.1968971510E-02       2   13    1         0.1124452974E+00      0.3963856395E+00
     PET DIFF ERROR     6    7   -0.1520867178E-07    0.2999999804E-07
     PET DIFF ERROR     6    8   -0.1520867108E-07    0.2999999804E-07
          0                 3           2             7    6     1      -0.6823357526E-01       7    6    1        -0.3760441941E+01      0.3762210610E+01
          0                 4           2             7    6     1       0.7001389426E-01       7    6    1         0.3894108956E+01      0.3894898205E+01
          0                 5           2             7    6     1      -0.1344952818E-02       7    6    1        -0.7598452995E-01      0.8169251662E-01
          0                 6           2             7    6     1      -0.2453088365E-03       7    6    1        -0.1384554401E-01      0.1712152959E-01
          0                 7           1             7    6     1      -0.4480023975E-04       7    6    1        -0.2526254154E-02      0.4984173965E-02
          0                 8           1            10   10     1       0.1507906524E-04       7    6    1        -0.4615255446E-03      0.1966048874E-02
          0                 9           1            10   10     1       0.6775057714E-05      10   10    1         0.1759979442E-03      0.8587498135E-03

    ------------------------------------------------
       NWT REQUIRED            9 OUTER ITERATIONS 
       AND A TOTAL OF         15 INNER ITERATIONS.
    ------------------------------------------------

 NO OUTPUT CONTROL FOR STRESS PERIOD   19   TIME STEP   16
 
 SOLVING FOR HEAD 
                                                   Max.-Head-Change                         Max.-Flux-Residual
  Residual-Control   Outer-Iter.   Inner-Iter.     Column Row Layer    Maximum-Head-Change  Column Row Layer    Maximum-Flux-Residual          L2-NORM 
          0                 1           2             2    2     1       0.8091876596E-02       2    2    1         0.4212284725E+00      0.1539621301E+01
          0                 2           2             2   13     1       0.2075325913E-02       2   13    1         0.1185311143E+00      0.4017810475E+00
          0                 3           2             7    6     1      -0.7247541719E-01       7    6    1        -0.3994199339E+01      0.3995867482E+01
          0                 4           2             7    6     1       0.7459429442E-01       7    6    1         0.4148868254E+01      0.4149528810E+01
          0                 5           2             7    6     1      -0.1621294471E-02       7    6    1        -0.9152589364E-01      0.9658714790E-01
          0                 6           2             7    6     1      -0.2960377468E-03       7    6    1        -0.1669600651E-01      0.1952086981E-01
          0                 7           1             7    6     1      -0.5412369971E-04       7    6    1        -0.3049694686E-02      0.5268424352E-02
          0                 8           1            10   10     1       0.1506634210E-04       7    6    1        -0.5577590264E-03      0.1990124400E-02
          0                 9           1            10   10     1       0.6769336173E-05      10   10    1         0.1758494236E-03      0.8603510961E-03

    ------------------------------------------------
       NWT REQUIRED            9 OUTER ITERATIONS 
       AND A TOTAL OF         15 INNER ITERATIONS.
    ------------------------------------------------

 NO OUTPUT CONTROL FOR STRESS PERIOD   19   TIME STEP   17
 
 SOLVING FOR HEAD 
                                                   Max.-Head-Change                         Max.-Flux-Residual
  Residual-Control   Outer-Iter.   Inner-Iter.     Column Row Layer    Maximum-Head-Change  Column Row Layer    Maximum-Flux-Residual          L2-NORM 
          0                 1           2             2    2     1       0.8070526093E-02       2    2    1         0.4201061558E+00      0.1533884219E+01
          0                 2           2             2   13     1       0.2072586203E-02       2   13    1         0.1183784864E+00      0.4012050751E+00
          0                 3           2             7    6     1      -0.7247533437E-01       7    6    1        -0.3994197051E+01      0.3995863915E+01
          0                 4           2             7    6     1       0.7459372628E-01       7    6    1         0.4148839159E+01      0.4149830127E+01
          0                 5           2             7    6     1      -0.1620860715E-02       7    6    1        -0.9150159965E-01      0.9664767202E-01
          0                 6           2             7    6     1      -0.2959577242E-03       7    6    1        -0.1669152483E-01      0.1951766791E-01
          0                 7           1             7    6     1      -0.5410893418E-04       7    6    1        -0.3048867911E-02      0.5266960167E-02
          0                 8           1            10   10     1       0.1505364146E-04       7    6    1        -0.5576064793E-03      0.1989522447E-02
          0                 9           1            10   10     1       0.6763625138E-05      10   10    1         0.1757011672E-03      0.8600779789E-03

    ------------------------------------------------
       NWT REQUIRED            9 OUTER ITERATIONS 
       AND A TOTAL OF         15 INNER ITERATIONS.
    ------------------------------------------------

 NO OUTPUT CONTROL FOR STRESS PERIOD   19   TIME STEP   18
 
 SOLVING FOR HEAD 
                                                   Max.-Head-Change                         Max.-Flux-Residual
  Residual-Control   Outer-Iter.   Inner-Iter.     Column Row Layer    Maximum-Head-Change  Column Row Layer    Maximum-Flux-Residual          L2-NORM 
          0                 1           2             2    2     1       0.8049459429E-02       2    2    1         0.4189988008E+00      0.1528416753E+01
          0                 2           2             2   13     1       0.2068492926E-02       2   13    1         0.1181503287E+00      0.4005946026E+00
     PET DIFF ERROR     6    7   -0.8680842225E-08    0.2999999804E-07
     PET DIFF ERROR     6    8   -0.8680841800E-08    0.2999999804E-07
          0                 3           2             7    6     1      -0.7247525593E-01       7    6    1        -0.3994195014E+01      0.3995860686E+01
          0                 4           2             7    6     1       0.7459321232E-01       7    6    1         0.4148813079E+01      0.4149214448E+01
     PET DIFF ERROR     6    7   -0.5108574341E-09    0.2999999804E-07
     PET DIFF ERROR     6    8   -0.5108574381E-09    0.2999999804E-07
          0                 5           2             7    6     1      -0.6418794528E-01       7    6    1        -0.3602857639E+01      0.3602987921E+01
          0                 6           2             7    6     1       0.6221179349E-01       7    6    1         0.3523773554E+01      0.3523834111E+01
     PET DIFF ERROR     6    7   -0.8515507953E-09    0.2999999804E-07
     PET DIFF ERROR     6    8   -0.8515507979E-09    0.2999999804E-07
          0                 7           2             7    6     1      -0.6108257911E-01       7    6    1        -0.3491467209E+01      0.3491517099E+01
          0                 8           2             7    6     1       0.5991458125E-01       7    6    1         0.3455938159E+01      0.3455984184E+01
     PET DIFF ERROR     6    7   -0.1614291033E-08    0.2999999804E-07
     PET DIFF ERROR     6    8   -0.1614291023E-08    0.2999999804E-07
          0                 9           2             7    6     1      -0.5846136493E-01       7    6    1        -0.3402901609E+01      0.3402945362E+01
          0                10           2             7    6     1       0.5735063276E-01       7    6    1         0.3368634022E+01      0.3368676947E+01
     PET DIFF ERROR     6    7   -0.2110140321E-08    0.2999999804E-07
     PET DIFF ERROR     6    8   -0.2110140256E-08    0.2999999804E-07
                                                   Max.-Head-Change                         Max.-Flux-Residual
  Residual-Control   Outer-Iter.   Inner-Iter.     Column Row Layer    Maximum-Head-Change  Column Row Layer    Maximum-Flux-Residual          L2-NORM 
          0                11           2             7    6     1      -0.5540099754E-01       7    6    1        -0.3283771601E+01      0.3283812080E+01
          0                12           2             7    6     1       0.5436297624E-01       7    6    1         0.3251513398E+01      0.3251553689E+01
          0                13           2             7    6     1       0.2532434065E-02       7    6    1         0.1510760104E+00      0.1518474374E+00
          0                14           2             7    6     1       0.5949862288E-03       7    6    1         0.3547275355E-01      0.3575430249E-01
          0                15           2             7    6     1       0.1398724825E-03       7    6    1         0.8333942066E-02      0.8428923866E-02
          0                16           1             7    6     1       0.3290139376E-04       7    6    1         0.1959126520E-02      0.1989476725E-02
          0                17           1             7    6     1       0.7743781084E-05       7    6    1         0.4608197873E-03      0.4701496943E-03

    ------------------------------------------------
       NWT REQUIRED           17 OUTER ITERATIONS 
       AND A TOTAL OF         32 INNER ITERATIONS.
    ------------------------------------------------

 NO OUTPUT CONTROL FOR STRESS PERIOD   19   TIME STEP   19
 
 SOLVING FOR HEAD 
     PET DIFF ERROR     6    7   -0.5012871957E-08    0.2999999804E-07
     PET DIFF ERROR     6    8   -0.5012871711E-08    0.2999999804E-07
                                                   Max.-Head-Change                         Max.-Flux-Residual
  Residual-Control   Outer-Iter.   Inner-Iter.     Column Row Layer    Maximum-Head-Change  Column Row Layer    Maximum-Flux-Residual          L2-NORM 
          0                 1           2             2    2     1       0.8028771071E-02       2    2    1         0.4179114115E+00      0.1523686080E+01
          0                 2           2             2   13     1       0.1953549706E-02       2   13    1         0.1115828349E+00      0.3939172690E+00
     PET DIFF ERROR     6    7   -0.1478731130E-07    0.2999999804E-07
     PET DIFF ERROR     6    8   -0.1478731082E-07    0.2999999804E-07
          0                 3           2             7    6     1      -0.6810655855E-01       7    6    1        -0.3753450970E+01      0.3755217048E+01
          0                 4           2             7    6     1       0.6987472532E-01       7    6    1         0.3886377918E+01      0.3887121705E+01
          0                 5           2             7    6     1      -0.1334873450E-02       7    6    1        -0.7541804357E-01      0.8113552620E-01
          0                 6           2             7    6     1      -0.2434570587E-03       7    6    1        -0.1374154728E-01      0.1702993484E-01
          0                 7           1             7    6     1      -0.4445968672E-04       7    6    1        -0.2507142748E-02      0.4969882342E-02
          0                 8           1            10   10     1       0.1502784250E-04       7    6    1        -0.4580098916E-03      0.1962813255E-02
          0                 9           1            10   10     1       0.6752023487E-05      10   10    1         0.1753999986E-03      0.8575457593E-03

    ------------------------------------------------
       NWT REQUIRED            9 OUTER ITERATIONS 
       AND A TOTAL OF         15 INNER ITERATIONS.
    ------------------------------------------------

 NO OUTPUT CONTROL FOR STRESS PERIOD   19   TIME STEP   20
 
 SOLVING FOR HEAD 
                                                   Max.-Head-Change                         Max.-Flux-Residual
  Residual-Control   Outer-Iter.   Inner-Iter.     Column Row Layer    Maximum-Head-Change  Column Row Layer    Maximum-Flux-Residual          L2-NORM 
          0                 1           2             2    2     1       0.8008338835E-02       2    2    1         0.4168375832E+00      0.1518664783E+01
          0                 2           2             2   13     1       0.2064201745E-02       2   13    1         0.1179131299E+00      0.3995848723E+00
          0                 3           2             7    6     1      -0.7247510326E-01       7    6    1        -0.3994191172E+01      0.3995854153E+01
          0                 4           2             7    6     1       0.7459223654E-01       7    6    1         0.4148763823E+01      0.4149527629E+01
          0                 5           2             7    6     1      -0.1619737578E-02       7    6    1        -0.9143871681E-01      0.9652562265E-01
          0                 6           2             7    6     1      -0.2957504449E-03       7    6    1        -0.1667991873E-01      0.1950235449E-01
          0                 7           1             7    6     1      -0.5407067981E-04       7    6    1        -0.3046726157E-02      0.5262619497E-02
          0                 8           1            10   10     1       0.1501478446E-04       7    6    1        -0.5572111872E-03      0.1987721986E-02
          0                 9           1            10   10     1       0.6746152380E-05      10   10    1         0.1752475729E-03      0.8592619228E-03

    ------------------------------------------------
       NWT REQUIRED            9 OUTER ITERATIONS 
       AND A TOTAL OF         15 INNER ITERATIONS.
    ------------------------------------------------

 NO OUTPUT CONTROL FOR STRESS PERIOD   19   TIME STEP   21
 
 SOLVING FOR HEAD 
                                                   Max.-Head-Change                         Max.-Flux-Residual
  Residual-Control   Outer-Iter.   Inner-Iter.     Column Row Layer    Maximum-Head-Change  Column Row Layer    Maximum-Flux-Residual          L2-NORM 
          0                 1           2             2    2     1       0.7988348669E-02       2    2    1         0.4157869845E+00      0.1513927599E+01
          0                 2           2             2   13     1       0.2061601861E-02       2   13    1         0.1177674048E+00      0.3990561744E+00
          0                 3           2             7    6     1      -0.7247503816E-01       7    6    1        -0.3994189874E+01      0.3995851436E+01
          0                 4           2             7    6     1       0.7459187937E-01       7    6    1         0.4148746470E+01      0.4149374997E+01
          0                 5           2             7    6     1      -0.1619479030E-02       7    6    1        -0.9142425753E-01      0.9647580851E-01
          0                 6           2             7    6     1      -0.2957026750E-03       7    6    1        -0.1667724586E-01      0.1949791370E-01
          0                 7           1             7    6     1      -0.5406185719E-04       7    6    1        -0.3046232425E-02      0.5261287127E-02
          0                 8           1            10   10     1       0.1500214760E-04       7    6    1        -0.5571200506E-03      0.1987131354E-02
          0                 9           1            10   10     1       0.6740469357E-05      10   10    1         0.1751000509E-03      0.8589912495E-03

    ------------------------------------------------
       NWT REQUIRED            9 OUTER ITERATIONS 
       AND A TOTAL OF         15 INNER ITERATIONS.
    ------------------------------------------------

 NO OUTPUT CONTROL FOR STRESS PERIOD   19   TIME STEP   22
 
 SOLVING FOR HEAD 
     PET DIFF ERROR     6    7   -0.5185826638E-09    0.2999999804E-07
     PET DIFF ERROR     6    8   -0.5185825777E-09    0.2999999804E-07
                                                   Max.-Head-Change                         Max.-Flux-Residual
  Residual-Control   Outer-Iter.   Inner-Iter.     Column Row Layer    Maximum-Head-Change  Column Row Layer    Maximum-Flux-Residual          L2-NORM 
          0                 1           2             2    2     1       0.7968611982E-02       2    2    1         0.4147497828E+00      0.1509504088E+01
          0                 2           2             2   13     1       0.2049862966E-02       2   13    1         0.1170989101E+00      0.3980323968E+00
          0                 3           2             7    6     1      -0.7209193286E-01       7    6    1        -0.3973080293E+01      0.3974748898E+01
          0                 4           2             7    6     1       0.7417782831E-01       7    6    1         0.4125719836E+01      0.4126807444E+01
          0                 5           2             7    6     1      -0.1594193220E-02       7    6    1        -0.9000227968E-01      0.9521841078E-01
          0                 6           2             7    6     1      -0.2910605444E-03       7    6    1        -0.1641641634E-01      0.1927417134E-01
          0                 7           1             7    6     1      -0.5320863529E-04       7    6    1        -0.2998332247E-02      0.5232474242E-02
          0                 8           1            10   10     1       0.1498911806E-04       7    6    1        -0.5483132559E-03      0.1984040114E-02
          0                 9           1            10   10     1       0.6734610506E-05      10   10    1         0.1749479537E-03      0.8584943211E-03

    ------------------------------------------------
       NWT REQUIRED            9 OUTER ITERATIONS 
       AND A TOTAL OF         15 INNER ITERATIONS.
    ------------------------------------------------

 NO OUTPUT CONTROL FOR STRESS PERIOD   19   TIME STEP   23
 
 SOLVING FOR HEAD 
                                                   Max.-Head-Change                         Max.-Flux-Residual
  Residual-Control   Outer-Iter.   Inner-Iter.     Column Row Layer    Maximum-Head-Change  Column Row Layer    Maximum-Flux-Residual          L2-NORM 
          0                 1           2             2    2     1       0.7949212912E-02       2    2    1         0.4137303583E+00      0.1505226259E+01
          0                 2           2             2   13     1       0.2056118240E-02       2   13    1         0.1174590856E+00      0.3980609948E+00
     PET DIFF ERROR     6    7   -0.6606909081E-08    0.2999999804E-07
     PET DIFF ERROR     6    8   -0.6606908672E-08    0.2999999804E-07
          0                 3           2             7    6     1      -0.7247491273E-01       7    6    1        -0.3994187547E+01      0.3995846575E+01
          0                 4           2             7    6     1       0.7459122155E-01       7    6    1         0.4148714910E+01      0.4149083461E+01
     PET DIFF ERROR     6    7   -0.6477319886E-09    0.2999999804E-07
     PET DIFF ERROR     6    8   -0.6477317983E-09    0.2999999804E-07
          0                 5           2             7    6     1      -0.6685382471E-01       7    6    1        -0.3752481912E+01      0.3752606603E+01
          0                 6           2             7    6     1       0.6503899322E-01       7    6    1         0.3683922637E+01      0.3683985330E+01
          0                 7           2             7    6     1      -0.2979217370E-03       7    6    1        -0.1749109467E-01      0.2615773228E-01
          0                 8           1             7    6     1      -0.4994205132E-04       7    6    1        -0.2941129445E-02      0.5011424460E-02
          0                 9           1             7    6     1      -0.5177310673E-04       7    6    1        -0.2975243172E-02      0.3193733313E-02
          0                10           1             2   13     1      -0.4952935386E-05       2   13    1        -0.2961870014E-03      0.6685727234E-03

    ------------------------------------------------
       NWT REQUIRED           10 OUTER ITERATIONS 
       AND A TOTAL OF         17 INNER ITERATIONS.
    ------------------------------------------------

 NO OUTPUT CONTROL FOR STRESS PERIOD   19   TIME STEP   24
 
 SOLVING FOR HEAD 
                                                   Max.-Head-Change                         Max.-Flux-Residual
  Residual-Control   Outer-Iter.   Inner-Iter.     Column Row Layer    Maximum-Head-Change  Column Row Layer    Maximum-Flux-Residual          L2-NORM 
          0                 1           2             2    2     1       0.7930149780E-02       2    2    1         0.4127286875E+00      0.1501706795E+01
          0                 2           2             2    3     1       0.1905306891E-02       2   13    1         0.8517147416E-01      0.3694778118E+00
          0                 3           2             2    3     1       0.8498655898E-03       2    3    1         0.2222065972E-01      0.1145022976E+00
          0                 4           2             2    3     1       0.3784054907E-03       2    3    1         0.9905010946E-02      0.4805260668E-01
          0                 5           2             2    3     1       0.1683718138E-03       2    3    1         0.4409120555E-02      0.2129127972E-01
          0                 6           1             2    3     1       0.7489854191E-04       2    3    1         0.1961653784E-02      0.9509633966E-02
          0                 7           1             2    3     1       0.3331517614E-04       2    3    1         0.8725923633E-03      0.4252978040E-02
          0                 8           1            10   10     1       0.1496309676E-04      10   10    1         0.3887031201E-03      0.1902631950E-02
          0                 9           1            10   10     1       0.6722910312E-05      10   10    1         0.1746442047E-03      0.8512933384E-03

    ------------------------------------------------
       NWT REQUIRED            9 OUTER ITERATIONS 
       AND A TOTAL OF         14 INNER ITERATIONS.
    ------------------------------------------------

 NO OUTPUT CONTROL FOR STRESS PERIOD   19   TIME STEP   25
 
 SOLVING FOR HEAD 
                                                   Max.-Head-Change                         Max.-Flux-Residual
  Residual-Control   Outer-Iter.   Inner-Iter.     Column Row Layer    Maximum-Head-Change  Column Row Layer    Maximum-Flux-Residual          L2-NORM 
          0                 1           2             2    2     1       0.7911402377E-02       2    2    1         0.4117436390E+00      0.1497817088E+01
          0                 2           2             2   13     1       0.2054880701E-02       2   13    1         0.1173932226E+00      0.3973108580E+00
          0                 3           2             7    6     1      -0.7247452542E-01       7    6    1        -0.3994170539E+01      0.3995826423E+01
          0                 4           2             7    6     1       0.7458739572E-01       7    6    1         0.4148507086E+01      0.4153256611E+01
          0                 5           2             7    6     1      -0.1615909492E-02       7    6    1        -0.9122409833E-01      0.9733707238E-01
          0                 6           2             7    6     1      -0.2950449644E-03       7    6    1        -0.1664038095E-01      0.1948410031E-01
          0                 7           1             7    6     1      -0.5394059629E-04       7    6    1        -0.3039438964E-02      0.5252513930E-02
          0                 8           1            10   10     1       0.1495052868E-04       7    6    1        -0.5558673517E-03      0.1983935861E-02
          0                 9           1            10   10     1       0.6717258052E-05      10   10    1         0.1744974878E-03      0.8576037656E-03

    ------------------------------------------------
       NWT REQUIRED            9 OUTER ITERATIONS 
       AND A TOTAL OF         15 INNER ITERATIONS.
    ------------------------------------------------

 NO OUTPUT CONTROL FOR STRESS PERIOD   19   TIME STEP   26
 
 SOLVING FOR HEAD 
                                                   Max.-Head-Change                         Max.-Flux-Residual
  Residual-Control   Outer-Iter.   Inner-Iter.     Column Row Layer    Maximum-Head-Change  Column Row Layer    Maximum-Flux-Residual          L2-NORM 
          0                 1           2             2    2     1       0.7892880850E-02       2    2    1         0.4107705093E+00      0.1493054975E+01
          0                 2           2             2   13     1       0.2043808908E-02       2   13    1         0.1167621397E+00      0.3963986942E+00
          0                 3           2             2    3     1       0.8518101729E-03       2    3    1         0.2227185457E-01      0.1150388006E+00
          0                 4           2             2    3     1       0.3792670915E-03       2    3    1         0.9927639503E-02      0.4807822121E-01
          0                 5           2             2    3     1       0.1687541383E-03       2    3    1         0.4419152233E-02      0.2127890014E-01
          0                 6           1             2    3     1       0.7506829253E-04       2    3    1         0.1966106158E-02      0.9502564890E-02
          0                 7           1             2    3     1       0.3339056211E-04       2    3    1         0.8745693625E-03      0.4249648365E-02
          0                 8           1            10   10     1       0.1493757042E-04       2    3    1         0.3890065735E-03      0.1901103334E-02
          0                 9           1            10   10     1       0.6711431465E-05      10   10    1         0.1743462203E-03      0.8505980681E-03

    ------------------------------------------------
       NWT REQUIRED            9 OUTER ITERATIONS 
       AND A TOTAL OF         14 INNER ITERATIONS.
    ------------------------------------------------

 NO OUTPUT CONTROL FOR STRESS PERIOD   19   TIME STEP   27
 
 SOLVING FOR HEAD 
                                                   Max.-Head-Change                         Max.-Flux-Residual
  Residual-Control   Outer-Iter.   Inner-Iter.     Column Row Layer    Maximum-Head-Change  Column Row Layer    Maximum-Flux-Residual          L2-NORM 
          0                 1           2             2    2     1       0.7874759567E-02       2    2    1         0.4098184646E+00      0.1490449941E+01
          0                 2           2             2   13     1       0.2042781790E-02       2   13    1         0.1167084241E+00      0.3960820541E+00
          0                 3           2             2    3     1       0.8527023335E-03       2    3    1         0.2229534744E-01      0.1150752554E+00
          0                 4           2             2    3     1       0.3796623340E-03       2    3    1         0.9938020810E-02      0.4804226036E-01
          0                 5           2             2    3     1       0.1689295124E-03       2    3    1         0.4423753983E-02      0.2129381748E-01
          0                 6           1             2    3     1       0.7514615560E-04       2    3    1         0.1968148463E-02      0.9575239076E-02
          0                 7           1             2    3     1       0.3342514096E-04       2    3    1         0.8754761954E-03      0.4316696030E-02
          0                 8           1            10   10     1       0.1492462193E-04       7    6    1        -0.6883638853E-03      0.2069158150E-02
          0                 9           1            10   10     1       0.6705608630E-05       2   13    1        -0.2626510923E-03      0.9812434584E-03

    ------------------------------------------------
       NWT REQUIRED            9 OUTER ITERATIONS 
       AND A TOTAL OF         14 INNER ITERATIONS.
    ------------------------------------------------

 NO OUTPUT CONTROL FOR STRESS PERIOD   19   TIME STEP   28
 
 SOLVING FOR HEAD 
     PET DIFF ERROR     6    7   -0.1096179100E-07    0.2999999804E-07
     PET DIFF ERROR     6    8   -0.1096179052E-07    0.2999999804E-07
                                                   Max.-Head-Change                         Max.-Flux-Residual
  Residual-Control   Outer-Iter.   Inner-Iter.     Column Row Layer    Maximum-Head-Change  Column Row Layer    Maximum-Flux-Residual          L2-NORM 
          0                 1           2             2    2     1       0.7742583587E-02       2    2    1         0.4028968216E+00      0.1488361389E+01
          0                 2           2             2    3     1       0.1913196281E-02       2   13    1         0.1005178166E+00      0.3801619370E+00
     PET DIFF ERROR     6    7   -0.2633809937E-08    0.2999999804E-07
     PET DIFF ERROR     6    8   -0.2633809839E-08    0.2999999804E-07
          0                 3           2             7    6     1      -0.5993622769E-01       7    6    1        -0.3303223532E+01      0.3305204591E+01
          0                 4           2             7    6     1       0.6104378564E-01       7    6    1         0.3395227329E+01      0.3395619584E+01
     PET DIFF ERROR     6    7   -0.3199944046E-08    0.2999999804E-07
     PET DIFF ERROR     6    8   -0.3199943966E-08    0.2999999804E-07
          0                 5           2             7    6     1      -0.5769934598E-01       7    6    1        -0.3238630226E+01      0.3238749902E+01
          0                 6           2             7    6     1       0.5639478105E-01       7    6    1         0.3194314798E+01      0.3194380434E+01
          0                 7           2             7    6     1       0.2671035001E-03       7    6    1         0.1472538216E-01      0.2247630791E-01
          0                 8           1             7    6     1       0.5294637858E-04       7    6    1         0.2918961006E-02      0.4769593151E-02
          0                 9           1             7    6     1       0.1049509052E-04       7    6    1         0.5785775140E-03      0.1216682807E-02
          0                10           1            10   10     1       0.3010202958E-05       7    6    1         0.1146818543E-03      0.4189296287E-03

    ------------------------------------------------
       NWT REQUIRED           10 OUTER ITERATIONS 
       AND A TOTAL OF         17 INNER ITERATIONS.
    ------------------------------------------------

 NO OUTPUT CONTROL FOR STRESS PERIOD   19   TIME STEP   29
 
 SOLVING FOR HEAD 
     PET DIFF ERROR     6    7   -0.4411148501E-08    0.2999999804E-07
     PET DIFF ERROR     6    8   -0.4411148402E-08    0.2999999804E-07
                                                   Max.-Head-Change                         Max.-Flux-Residual
  Residual-Control   Outer-Iter.   Inner-Iter.     Column Row Layer    Maximum-Head-Change  Column Row Layer    Maximum-Flux-Residual          L2-NORM 
          0                 1           2             2   13     1      -0.1427873044E-01       2   13    1        -0.8040936786E+00      0.2045002078E+01
          0                 2           2             5   13     1       0.3338562010E-02       5   13    1         0.1932216378E+00      0.4798357436E+00
          0                 3           2             7    6     1      -0.6872174735E-01       7    6    1        -0.3787353842E+01      0.3789119766E+01
          0                 4           2             7    6     1       0.7053507330E-01       7    6    1         0.3923133243E+01      0.3923934824E+01
          0                 5           2             7    6     1      -0.1372666614E-02       7    6    1        -0.7754353005E-01      0.8314395191E-01
          0                 6           2             7    6     1      -0.2503955242E-03       7    6    1        -0.1413138721E-01      0.1732244501E-01
          0                 7           1             7    6     1      -0.4573516741E-04       7    6    1        -0.2578739994E-02      0.4987799932E-02
          0                 8           1            10   10     1       0.1489877195E-04       7    6    1        -0.4711760112E-03      0.1956316316E-02
          0                 9           1            10   10     1       0.6693984719E-05      10   10    1         0.1738933075E-03      0.8533301301E-03

    ------------------------------------------------
       NWT REQUIRED            9 OUTER ITERATIONS 
       AND A TOTAL OF         15 INNER ITERATIONS.
    ------------------------------------------------

 NO OUTPUT CONTROL FOR STRESS PERIOD   19   TIME STEP   30



 STREAM LISTING     PERIOD     19   STEP       30

 LAYER ROW COL. STREAM  RCH.  FLOW INTO     FLOW TO   FLOW OUT OF   OVRLND.     DIRECT     STREAM       STREAM     STREAM     STREAM   STREAMBED  STREAMBED
                SEG.NO.  NO.  STRM. RCH.    AQUIFER    STRM. RCH.    RUNOFF     PRECIP       ET          HEAD       DEPTH      WIDTH   CONDCTNC.   GRADIENT

   1    1    1     1     1    2.8000E+01  2.5860E-01   2.7741E+01  0.000E+00  0.000E+00  0.000E+00  1.09427E+03  1.221E+00  1.361E+01  6.126E-02  1.407E+00
   1    2    2     1     2    2.7741E+01  4.0002E-01   2.7341E+01  0.000E+00  0.000E+00  0.000E+00  1.08928E+03  1.217E+00  1.355E+01  9.487E-02  1.406E+00
   1    3    3     1     3    2.7341E+01  3.4070E-01   2.7001E+01  0.000E+00  0.000E+00  0.000E+00  1.08363E+03  1.212E+00  1.348E+01  8.090E-02  1.404E+00
   1    3    4     1     4    2.7001E+01  3.1335E-01   2.6687E+01  0.000E+00  0.000E+00  0.000E+00  1.07861E+03  1.207E+00  1.342E+01  7.448E-02  1.402E+00
   1    4    5     2     1    2.4687E+01  3.2711E-01   2.4360E+01  0.000E+00  0.000E+00  0.000E+00  1.07313E+03  1.194E+00  1.200E+01  7.800E-02  1.398E+00
   1    5    6     2     2    2.4360E+01  2.5111E-01   2.4109E+01  0.000E+00  0.000E+00  0.000E+00  1.06769E+03  1.185E+00  1.200E+01  6.000E-02  1.395E+00
   1    6    6     2     3    2.4109E+01  2.5067E-01   2.3858E+01  0.000E+00  0.000E+00  0.000E+00  1.06297E+03  1.178E+00  1.200E+01  6.000E-02  1.393E+00
   1    7    6     2     4    2.3858E+01  2.5023E-01   2.3608E+01  0.000E+00  0.000E+00  0.000E+00  1.05825E+03  1.170E+00  1.200E+01  6.000E-02  1.390E+00
   1    8    6     2     5    2.3608E+01  2.4978E-01   2.3358E+01  0.000E+00  0.000E+00  0.000E+00  1.05352E+03  1.163E+00  1.200E+01  6.000E-02  1.388E+00
   1    3    5     3     1    2.0000E+00  2.8252E-01   1.7175E+00  0.000E+00  0.000E+00  0.000E+00  1.07555E+03  1.909E+00  9.636E+00  7.227E-02  1.955E+00
   1    3    6     3     2    1.7175E+00  2.4905E-01   1.4684E+00  0.000E+00  0.000E+00  0.000E+00  1.07264E+03  1.727E+00  8.909E+00  6.682E-02  1.864E+00
   1    3    7     3     3    1.4684E+00  1.9718E-01   1.2712E+00  0.000E+00  0.000E+00  0.000E+00  1.06987E+03  1.555E+00  8.218E+00  5.547E-02  1.777E+00
   1    4    8     3     4    1.2712E+00  2.2567E-01   1.0456E+00  0.000E+00  0.000E+00  0.000E+00  1.06682E+03  1.364E+00  7.455E+00  6.709E-02  1.682E+00
   1    5    8     3     5    1.0456E+00  1.5790E-01   8.8768E-01  0.000E+00  0.000E+00  0.000E+00  1.06362E+03  1.164E+00  6.655E+00  4.991E-02  1.582E+00
   1    6    8     3     6    8.8768E-01  5.5980E-02   8.3170E-01  0.000E+00  0.000E+00  0.000E+00  1.06158E+03  1.036E+00  6.145E+00  1.844E-02  1.518E+00
   1    5   10     4     1    1.0000E+01  9.0919E-02   9.9091E+00  0.000E+00  0.000E+00  0.000E+00  1.07836E+03  6.368E-01  1.000E+01  2.500E-02  1.212E+00
   1    5    9     4     2    9.9091E+00  1.8158E-01   9.7275E+00  0.000E+00  0.000E+00  0.000E+00  1.07154E+03  6.315E-01  1.000E+01  5.000E-02  1.211E+00
   1    6    8     4     3    9.7275E+00  1.2689E-01   9.6006E+00  0.000E+00  0.000E+00  0.000E+00  1.06381E+03  6.256E-01  1.000E+01  3.500E-02  1.209E+00
   1    6    8     5     1    1.0432E+01  2.2686E-01   1.0205E+01  0.000E+00  0.000E+00  0.000E+00  1.05868E+03  6.790E-01  1.542E+01  6.166E-02  1.226E+00
   1    7    7     5     2    1.0205E+01  2.7894E-01   9.9265E+00  0.000E+00  0.000E+00  0.000E+00  1.05417E+03  6.732E-01  1.519E+01  7.594E-02  1.224E+00
   1    8    7     5     3    9.9265E+00  1.9221E-01   9.7343E+00  0.000E+00  0.000E+00  0.000E+00  1.04992E+03  6.676E-01  1.497E+01  5.241E-02  1.223E+00
   1    8    6     5     4    9.7343E+00  1.3577E-01   9.5985E+00  0.000E+00  0.000E+00  0.000E+00  1.04691E+03  6.637E-01  1.482E+01  3.706E-02  1.221E+00
   1    9    6     6     1    3.1323E+01  2.6367E-01   3.1060E+01  0.000E+00  0.000E+00  0.000E+00  1.04412E+03  1.394E+00  1.200E+01  6.000E-02  1.465E+00
   1   10    7     6     2    3.1060E+01  2.6324E-01   3.0796E+01  0.000E+00  0.000E+00  0.000E+00  1.03957E+03  1.387E+00  1.200E+01  6.000E-02  1.462E+00
   1   11    7     6     3    3.0796E+01  2.6281E-01   3.0534E+01  0.000E+00  0.000E+00  0.000E+00  1.03502E+03  1.380E+00  1.200E+01  6.000E-02  1.460E+00
   1   12    7     6     4    3.0534E+01  2.5997E-01   3.0274E+01  0.000E+00  0.000E+00  0.000E+00  1.03046E+03  1.373E+00  1.200E+01  6.000E-02  1.444E+00
   1   13    7     6     5    3.0274E+01 -4.9352E-02   3.0323E+01  0.000E+00  0.000E+00  0.000E+00  1.02728E+03  1.370E+00  1.200E+01  2.400E-01 -6.854E-02
   1   14    9     7     1    1.5000E+02  1.1537E+00   1.4885E+02  0.000E+00  0.000E+00  0.000E+00  1.03987E+03  2.288E+00  5.530E+01  5.593E-01  6.876E-01
   1   13    8     7     2    1.4885E+02  1.5546E+00   1.4729E+02  0.000E+00  0.000E+00  0.000E+00  1.03478E+03  2.281E+00  5.526E+01  6.149E-01  8.428E-01
   1   13    7     7     3    1.4729E+02  1.2333E+00   1.4606E+02  0.000E+00  0.000E+00  0.000E+00  1.02969E+03  2.274E+00  5.523E+01  5.586E-01  7.360E-01
   1   13    6     8     1    1.7638E+02  6.9510E-01   1.7569E+02  0.000E+00  0.000E+00  0.000E+00  1.02487E+03  2.991E+00  4.337E+01  4.420E-01  5.243E-01
   1   13    5     8     2    1.7569E+02 -3.2654E-01   1.7601E+02  0.000E+00  0.000E+00  0.000E+00  1.01861E+03  2.990E+00  4.335E+01  4.418E+00 -2.464E-02
   1   13    4     8     3    1.7601E+02 -3.4622E+00   1.7948E+02  0.000E+00  0.000E+00  0.000E+00  1.01238E+03  3.002E+00  4.353E+01  4.436E+00 -2.602E-01
   1   13    3     8     4    1.7948E+02 -4.2706E+00   1.8375E+02  0.000E+00  0.000E+00  0.000E+00  1.00615E+03  3.026E+00  4.388E+01  4.472E+00 -3.183E-01
   1   13    2     8     5    1.8375E+02 -2.7597E+00   1.8651E+02  0.000E+00  0.000E+00  0.000E+00  9.99923E+02  3.048E+00  4.420E+01  4.504E+00 -2.043E-01
   1   13    1     8     6    1.8651E+02 -1.8438E+00   1.8835E+02  0.000E+00  0.000E+00  0.000E+00  9.94937E+02  3.062E+00  4.440E+01  2.715E+00 -2.264E-01
   1    6    8     9     1    1.6336E+00  0.0000E+00   1.6336E+00  0.000E+00  0.000E+00  0.000E+00  1.07868E+03  1.817E-01  4.000E+00  0.000E+00  1.061E+00





UNSATURATED ZONE PACKAGE VOLUMETRIC BUDGET FOR  TIME STEP    30 STRESS PERIOD   19
  ------------------------------------------------------------------------------



     CUMULATIVE VOLUMES      L**3       RATES FOR THIS TIME STEP      L**3/T
     ------------------                 ------------------------

           IN:                                      IN:
           ---                                      ---
        INFILTRATION =    22571531.5886          INFILTRATION =           1.6336

          OUT:                                     OUT:
          ----                                     ----
              UZF ET =   549635569.9515                UZF ET =           1.5000
        UZF RECHARGE =  1091775957.3929          UZF RECHARGE =          19.6238

            IN - OUT = -1618839995.7558              IN - OUT =         -19.4902

          STORAGE:                                 STORAGE:
          --------                                 --------
      STORAGE CHANGE = -1618813786.8920        STORAGE CHANGE =         -19.4902

 PERCENT DISCREPANCY IS DIFFERENCE BETWEEN IN-OUT MINUS CHANGE IN STORAGE
 DIVIDED BY THE AVERAGE OF IN AND OUT TIMES 100

 PERCENT DISCREPANCY =          -0.00     PERCENT DISCREPANCY =           0.00






1
  VOLUMETRIC BUDGET FOR ENTIRE MODEL AT END OF TIME STEP   30, STRESS PERIOD  19
  ------------------------------------------------------------------------------

     CUMULATIVE VOLUMES      L**3       RATES FOR THIS TIME STEP      L**3/T
     ------------------                 ------------------------

           IN:                                      IN:
           ---                                      ---
             STORAGE     =    41971872.0000               STORAGE     =           3.8037
       CONSTANT HEAD     =           0.0000         CONSTANT HEAD     =           0.0000
               WELLS     =           0.0000                 WELLS     =           0.0000
     HEAD DEP BOUNDS     =    13011360.0000       HEAD DEP BOUNDS     =           0.2734
      STREAM LEAKAGE     =   523016576.0000        STREAM LEAKAGE     =          10.7295
        UZF RECHARGE     =  1091775872.0000          UZF RECHARGE     =          19.6238
               GW ET     =           0.0000                 GW ET     =           0.0000
     SURFACE LEAKAGE     =           0.0000       SURFACE LEAKAGE     =           0.0000
    SUPPLEMENTARY WELLS  =           0.0000      SUPPLEMENTARY WELLS  =           0.0000

                TOTAL IN =  1669775616.0000                  TOTAL IN =          34.4304

          OUT:                                     OUT:
          ----                                     ----
             STORAGE     =  1018891264.0000               STORAGE     =          16.1763
       CONSTANT HEAD     =           0.0000         CONSTANT HEAD     =           0.0000
               WELLS     =           0.0000                 WELLS     =           0.0000
     HEAD DEP BOUNDS     =    13711737.0000       HEAD DEP BOUNDS     =           0.2894
      STREAM LEAKAGE     =   531267872.0000        STREAM LEAKAGE     =          12.7122
        UZF RECHARGE     =           0.0000          UZF RECHARGE     =           0.0000
               GW ET     =   105704928.0000                 GW ET     =           5.2500
     SURFACE LEAKAGE     =           0.0000       SURFACE LEAKAGE     =           0.0000
    SUPPLEMENTARY WELLS  =       39119.0312      SUPPLEMENTARY WELLS  =           0.0000

               TOTAL OUT =  1669614976.0000                 TOTAL OUT =          34.4279

                IN - OUT =      160640.0000                  IN - OUT =       2.4796E-03

     PERCENT DISCREPANCY =           0.01         PERCENT DISCREPANCY =           0.01






         TIME SUMMARY AT END OF TIME STEP   30 IN STRESS PERIOD   19
                    SECONDS     MINUTES      HOURS       DAYS        YEARS
                    -----------------------------------------------------------
   TIME STEP LENGTH  87600.      1460.0      24.333      1.0139     2.77588E-03
 STRESS PERIOD TIME 2.62800E+06  43800.      730.00      30.417     8.32763E-02
         TOTAL TIME 4.73904E+07 7.89840E+05  13164.      548.50      1.5017    
1
1
                            STRESS PERIOD NO.   20, LENGTH =   2628000.    
                            -----------------------------------------------

                              NUMBER OF TIME STEPS =    30

                               MULTIPLIER FOR DELT =     1.000

                            INITIAL TIME STEP SIZE =   87600.00    

 WELL NO.  LAYER   ROW   COL   STRESS RATE         
 --------------------------------------------------
      1      1      6      4       0.000    
      2      1      6      7       0.000    
      3      1      7      4       0.000    
      4      1      7      5       0.000    
      5      1      8      4       0.000    
      6      1      8      5       0.000    
      7      1      9      4       0.000    
      8      1      9      5       0.000    
      9      1     10      4       0.000    
     10      1     10      5       0.000    

     10 WELLS

 REUSING NON-PARAMETER GHB CELLS FROM LAST STRESS PERIOD

      2 GHB CELLS

 REUSING STREAM SEGMENT DATA FROM LAST STRESS PERIOD



            AREAL INFILTRATION RATE
 READING ON UNIT   19 WITH FORMAT: (10F4.0)            

            1           2           3           4           5           6           7           8           9          10
 ........................................................................................................................
   1    0.000       0.000       0.000       0.000       0.000       0.000       0.000       0.000       0.000       0.000    
   2    0.000       0.000       0.000       0.000       0.000       0.000       0.000       0.000       0.000       0.000    
   3    0.000       0.000       0.000       0.000       0.000       0.000       0.000       0.000       0.000       0.000    
   4    0.000       0.000       0.000       0.000       0.000       0.000       0.000       0.000       0.000       0.000    
   5    0.000       0.000       0.000       0.000       0.000       0.000       0.000       0.000       0.000       0.000    
   6    0.000       0.000       0.000       0.000       0.000       0.000       0.000       0.000       0.000       0.000    
   7    0.000       0.000       0.000       0.000       0.000       0.000       0.000       0.000       0.000       0.000    
   8    0.000       0.000       0.000       0.000       0.000       0.000       0.000       0.000       0.000       0.000    
   9    0.000       0.000       0.000       0.000       0.000       0.000       0.000       0.000       0.000       0.000    
  10    0.000       0.000       0.000       0.000       0.000       0.000       0.000       0.000       0.000       0.000    
  11    0.000       0.000       0.000       0.000       0.000       0.000       0.000       0.000       0.000       0.000    
  12    0.000       0.000       0.000       0.000       0.000       0.000       0.000       0.000       0.000       0.000    
  13    0.000       0.000       0.000       0.000       0.000       0.000       0.000       0.000       0.000       0.000    
  14    0.000       0.000       0.000       0.000       0.000       0.000       0.000       0.000       0.000       0.000    
  15    0.000       0.000       0.000       0.000       0.000       0.000       0.000       0.000       0.000       0.000    

                  ET RATE =  6.000000E-08

 USING ET EXTINCTION DEPTH FROM PREVIOUS STRESS PERIOD. CURRENT PERIOD IS:      20

 USING EXTINCTION WATER CONTENT FROM PREVIOUS STRESS PERIOD. CURRENT PERIOD IS:      20

 PROCESSING AGO STRESS PERIOD DATA

 READING AGO STRESS PERIOD DATA

 READING IRRIGATION STREAM

 READING IRRIGATION WELL

 READING SUPPLEMENTAL WEL

 END PROCESSING AGO STRESS PERIOD DATA OPTIONS
 
 SOLVING FOR HEAD 
     PET DIFF ERROR     6    7   -0.1545758904E-07    0.5999999608E-07
     PET DIFF ERROR     6    8   -0.1545758859E-07    0.5999999608E-07
                                                   Max.-Head-Change                         Max.-Flux-Residual
  Residual-Control   Outer-Iter.   Inner-Iter.     Column Row Layer    Maximum-Head-Change  Column Row Layer    Maximum-Flux-Residual          L2-NORM 
          0                 1           2             2   13     1      -0.2666322632E-01       2   13    1        -0.1499108041E+01      0.3681900058E+01
          0                 2           2             5   13     1       0.4067099168E-02       5   13    1         0.2345808688E+00      0.5930598429E+00
     PET DIFF ERROR     6    7   -0.2612283919E-07    0.5999999608E-07
     PET DIFF ERROR     6    8   -0.2612283867E-07    0.5999999608E-07
          0                 3           2             7    6     1      -0.5736229700E-01       7    6    1        -0.3161365555E+01      0.3163620892E+01
          0                 4           2             7    6     1       0.5827183662E-01       7    6    1         0.3241060452E+01      0.3243048004E+01
          0                 5           2             7    6     1      -0.6352430808E-03       7    6    1        -0.3607061832E-01      0.4587654439E-01
          0                 6           2             7    6     1      -0.1150265793E-03       7    6    1        -0.6524905595E-02      0.1185511063E-01
          0                 7           1            10   10     1       0.3313141581E-04       7    6    1        -0.1181957537E-02      0.4421739113E-02
          0                 8           1            10   10     1       0.1488587272E-04      10   10    1         0.3866984241E-03      0.1908206189E-02
          0                 9           1            10   10     1       0.6688183894E-05      10   10    1         0.1737427300E-03      0.8486466485E-03

    ------------------------------------------------
       NWT REQUIRED            9 OUTER ITERATIONS 
       AND A TOTAL OF         15 INNER ITERATIONS.
    ------------------------------------------------

 NO OUTPUT CONTROL FOR STRESS PERIOD   20   TIME STEP    1
 
 SOLVING FOR HEAD 
                                                   Max.-Head-Change                         Max.-Flux-Residual
  Residual-Control   Outer-Iter.   Inner-Iter.     Column Row Layer    Maximum-Head-Change  Column Row Layer    Maximum-Flux-Residual          L2-NORM 
          0                 1           2             2   13     1      -0.2481081006E-01       2   13    1        -0.1394725017E+01      0.3480804715E+01
          0                 2           2             5   13     1       0.4382782128E-02       5   13    1         0.2530142133E+00      0.6154325630E+00
          0                 3           2             7    6     1      -0.7247626214E-01       7    6    1        -0.3994260719E+01      0.3996068517E+01
          0                 4           2             7    6     1       0.7459835127E-01       7    6    1         0.4149135348E+01      0.4155541597E+01
          0                 5           2             7    6     1      -0.1625520683E-02       7    6    1        -0.9176326451E-01      0.9821816405E-01
          0                 6           2             7    6     1      -0.2968160431E-03       7    6    1        -0.1673963300E-01      0.1955134352E-01
          0                 7           1             7    6     1      -0.5426739253E-04       7    6    1        -0.3057735489E-02      0.5243905032E-02
          0                 8           1            10   10     1       0.1487299625E-04       7    6    1        -0.5592445600E-03      0.1974601703E-02
          0                 9           1            10   10     1       0.6682393573E-05      10   10    1         0.1735924155E-03      0.8528903553E-03

    ------------------------------------------------
       NWT REQUIRED            9 OUTER ITERATIONS 
       AND A TOTAL OF         15 INNER ITERATIONS.
    ------------------------------------------------

 NO OUTPUT CONTROL FOR STRESS PERIOD   20   TIME STEP    2
 
 SOLVING FOR HEAD 
                                                   Max.-Head-Change                         Max.-Flux-Residual
  Residual-Control   Outer-Iter.   Inner-Iter.     Column Row Layer    Maximum-Head-Change  Column Row Layer    Maximum-Flux-Residual          L2-NORM 
          0                 1           2             2   13     1      -0.2305136317E-01       2   13    1        -0.1295591265E+01      0.3293541002E+01
          0                 2           2             5   13     1       0.4226024674E-02       5   13    1         0.2439807879E+00      0.5991997770E+00
          0                 3           2             2    3     1       0.8291146296E-03       2    3    1         0.2169504141E-01      0.1196426921E+00
          0                 4           2             2    3     1       0.3690047563E-03       2    3    1         0.9661468914E-02      0.4770539371E-01
          0                 5           2             2    3     1       0.1641691434E-03       2    3    1         0.4299331867E-02      0.2119222097E-01
          0                 6           1            10   10     1       0.7361104054E-04       2    3    1         0.1912663040E-02      0.9536671537E-02
          0                 7           1            10   10     1       0.3307326249E-04       7    6    1         0.1099373646E-02      0.4377616024E-02
          0                 8           1             7    6     1       0.1699307797E-04       7    6    1         0.9446982865E-03      0.2133262759E-02
          0                 9           1             7    6     1       0.1546510934E-04       7    6    1         0.8598132808E-03      0.1233031178E-02
          0                10           2             7    6     1      -0.3178579476E-03       7    6    1        -0.1783813772E-01      0.1784353675E-01
                                                   Max.-Head-Change                         Max.-Flux-Residual
  Residual-Control   Outer-Iter.   Inner-Iter.     Column Row Layer    Maximum-Head-Change  Column Row Layer    Maximum-Flux-Residual          L2-NORM 
          0                11           2             7    6     1       0.3321561464E-03       7    6    1         0.1881342971E-01      0.1885633724E-01
          0                12           1             7    6     1       0.2352320548E-04       7    6    1         0.1329951825E-02      0.1337062129E-02
          0                13           1             7    6     1       0.4457897543E-04       7    6    1         0.2523998747E-02      0.2527900488E-02
          0                14           1             7    6     1       0.8529058854E-05       7    6    1         0.4825488174E-03      0.4833629076E-03

    ------------------------------------------------
       NWT REQUIRED           14 OUTER ITERATIONS 
       AND A TOTAL OF         21 INNER ITERATIONS.
    ------------------------------------------------

 NO OUTPUT CONTROL FOR STRESS PERIOD   20   TIME STEP    3
 
 SOLVING FOR HEAD 
                                                   Max.-Head-Change                         Max.-Flux-Residual
  Residual-Control   Outer-Iter.   Inner-Iter.     Column Row Layer    Maximum-Head-Change  Column Row Layer    Maximum-Flux-Residual          L2-NORM 
          0                 1           2             2   13     1      -0.2155149111E-01       2   13    1        -0.1211113255E+01      0.3136312926E+01
          0                 2           2             2   13     1       0.2008820835E-02       2   13    1         0.1139396360E+00      0.4152240749E+00
          0                 3           2             2    3     1       0.8241011820E-03       2    3    1         0.2156327272E-01      0.1135716290E+00
          0                 4           2             2    3     1       0.3667826660E-03       2    3    1         0.9603106872E-02      0.4759728299E-01
          0                 5           2            10   10     1       0.1636941395E-03       2    3    1         0.4273460164E-02      0.2112117399E-01
          0                 6           1            10   10     1       0.7354739654E-04      10   10    1         0.1910581256E-02      0.9434246982E-02
          0                 7           1            10   10     1       0.3304464303E-04      10   10    1         0.8584195681E-03      0.4218566718E-02
          0                 8           1            10   10     1       0.1484685315E-04      10   10    1         0.3856854898E-03      0.1886943457E-02
          0                 9           1            10   10     1       0.6670637854E-05      10   10    1         0.1732872405E-03      0.8441721178E-03

    ------------------------------------------------
       NWT REQUIRED            9 OUTER ITERATIONS 
       AND A TOTAL OF         14 INNER ITERATIONS.
    ------------------------------------------------

 NO OUTPUT CONTROL FOR STRESS PERIOD   20   TIME STEP    4
 
 SOLVING FOR HEAD 
                                                   Max.-Head-Change                         Max.-Flux-Residual
  Residual-Control   Outer-Iter.   Inner-Iter.     Column Row Layer    Maximum-Head-Change  Column Row Layer    Maximum-Flux-Residual          L2-NORM 
          0                 1           2             2   13     1      -0.2003060080E-01       2   13    1        -0.1125445182E+01      0.2980279140E+01
          0                 2           2             2   13     1       0.3738951076E-02       2   13    1         0.2124518210E+00      0.5446350139E+00
          0                 3           2             7    6     1      -0.7247714280E-01       7    6    1        -0.3994316910E+01      0.3996045242E+01
          0                 4           2             7    6     1       0.7461014541E-01       7    6    1         0.4149799035E+01      0.4150422586E+01
     PET DIFF ERROR     6    7   -0.2754152623E-08    0.5999999608E-07
     PET DIFF ERROR     6    8   -0.2754152521E-08    0.5999999608E-07
          0                 5           2             7    6     1      -0.5383671274E-01       7    6    1        -0.3021960344E+01      0.3022115786E+01
          0                 6           2             7    6     1       0.5123344229E-01       7    6    1         0.2901965987E+01      0.2902024354E+01
          0                 7           2             7    6     1       0.1798826235E-03       7    6    1         0.9819926004E-02      0.1844927275E-01
          0                 8           2             7    6     1       0.3411583843E-03       7    6    1         0.1924900818E-01      0.1958455319E-01
          0                 9           1             7    6     1       0.6565278230E-04       7    6    1         0.3701328389E-02      0.3858999909E-02
          0                10           1             7    6     1       0.1264700336E-04       7    6    1         0.7124293315E-03      0.8218304983E-03
          0                11           1             7    6     1       0.2438743859E-05       7    6    1         0.1372663323E-03      0.2208839055E-03

    ------------------------------------------------
       NWT REQUIRED           11 OUTER ITERATIONS 
       AND A TOTAL OF         19 INNER ITERATIONS.
    ------------------------------------------------

 NO OUTPUT CONTROL FOR STRESS PERIOD   20   TIME STEP    5
 
 SOLVING FOR HEAD 
                                                   Max.-Head-Change                         Max.-Flux-Residual
  Residual-Control   Outer-Iter.   Inner-Iter.     Column Row Layer    Maximum-Head-Change  Column Row Layer    Maximum-Flux-Residual          L2-NORM 
          0                 1           2             1   13     1      -0.1873187584E-01       2   13    1        -0.1051463737E+01      0.2846525579E+01
          0                 2           2             2   13     1       0.3139399188E-02       2   13    1         0.1783186602E+00      0.4849455079E+00
          0                 3           2             7    6     1      -0.5312546554E-01       7    6    1        -0.2927893856E+01      0.2930167356E+01
          0                 4           2             7    6     1       0.5371432151E-01       7    6    1         0.2987582318E+01      0.2988697753E+01
          0                 5           2             7    6     1      -0.3750979323E-03       7    6    1        -0.2143844298E-01      0.3433881753E-01
          0                 6           1            10   10     1       0.7342049069E-04       7    6    1        -0.3841647998E-02      0.1052784267E-01
          0                 7           1            10   10     1       0.3298757444E-04      10   10    1         0.8569381366E-03      0.4292885576E-02
          0                 8           1            10   10     1       0.1482118975E-04      10   10    1         0.3850192944E-03      0.1889783312E-02
          0                 9           1            10   10     1       0.6659096730E-05      10   10    1         0.1729876507E-03      0.8432645217E-03

    ------------------------------------------------
       NWT REQUIRED            9 OUTER ITERATIONS 
       AND A TOTAL OF         14 INNER ITERATIONS.
    ------------------------------------------------

 NO OUTPUT CONTROL FOR STRESS PERIOD   20   TIME STEP    6
 
 SOLVING FOR HEAD 
                                                   Max.-Head-Change                         Max.-Flux-Residual
  Residual-Control   Outer-Iter.   Inner-Iter.     Column Row Layer    Maximum-Head-Change  Column Row Layer    Maximum-Flux-Residual          L2-NORM 
          0                 1           2             6   13     1      -0.1807428172E-01       2   13    1        -0.9803607106E+00      0.2723331668E+01
          0                 2           2             2   13     1       0.3553354385E-02       2   13    1         0.2019087316E+00      0.5178776984E+00
          0                 3           2             7    6     1      -0.7247762396E-01       7    6    1        -0.3994348496E+01      0.3996045911E+01
          0                 4           2             7    6     1       0.7461678017E-01       7    6    1         0.4150173153E+01      0.4154953623E+01
          0                 5           2             7    6     1      -0.1641005220E-02       7    6    1        -0.9263277353E-01      0.9863116317E-01
          0                 6           2             7    6     1      -0.2996649495E-03       7    6    1        -0.1689946593E-01      0.1965959308E-01
          0                 7           1             7    6     1      -0.5479216625E-04       7    6    1        -0.3087151978E-02      0.5245061547E-02
          0                 8           1            10   10     1       0.1480798089E-04       7    6    1        -0.5646648199E-03      0.1967295371E-02
          0                 9           1            10   10     1       0.6653156843E-05      10   10    1         0.1728334559E-03      0.8487616105E-03

    ------------------------------------------------
       NWT REQUIRED            9 OUTER ITERATIONS 
       AND A TOTAL OF         15 INNER ITERATIONS.
    ------------------------------------------------

 NO OUTPUT CONTROL FOR STRESS PERIOD   20   TIME STEP    7
 
 SOLVING FOR HEAD 
                                                   Max.-Head-Change                         Max.-Flux-Residual
  Residual-Control   Outer-Iter.   Inner-Iter.     Column Row Layer    Maximum-Head-Change  Column Row Layer    Maximum-Flux-Residual          L2-NORM 
          0                 1           2             6   13     1      -0.1765627957E-01       6   13    1        -0.9397631687E+00      0.2618179401E+01
          0                 2           2             2   13     1       0.3445791406E-02       2   13    1         0.1957952819E+00      0.5083669539E+00
          0                 3           2             7    6     1      -0.7247783298E-01       7    6    1        -0.3994362526E+01      0.3996049051E+01
          0                 4           2             7    6     1       0.7461971870E-01       7    6    1         0.4150339128E+01      0.4150695103E+01
          0                 5           2             7    6     1      -0.1999769558E-02       7    6    1        -0.1127674767E+00      0.1167935122E+00
          0                 6           2             7    6     1      -0.2545629551E-03       7    6    1        -0.1436531739E-01      0.1750214170E-01
          0                 7           1             7    6     1      -0.8460858064E-04       7    6    1        -0.4760329047E-02      0.6400947766E-02
          0                 8           1             7    6     1      -0.9098584925E-04       7    6    1        -0.5107653275E-02      0.5494102092E-02
          0                 9           1             7    6     1       0.1040250800E-03       7    6    1         0.5891831961E-02      0.6026465547E-02
          0                10           1             7    6     1      -0.1225433144E-04       7    6    1        -0.7011567707E-03      0.9967109658E-03
                                                   Max.-Head-Change                         Max.-Flux-Residual
  Residual-Control   Outer-Iter.   Inner-Iter.     Column Row Layer    Maximum-Head-Change  Column Row Layer    Maximum-Flux-Residual          L2-NORM 
          0                11           1             7    6     1      -0.6685083022E-04       7    6    1        -0.3820650369E-02      0.3889487610E-02
          0                12           1             7    6     1       0.8527564313E-04       7    6    1         0.4918649247E-02      0.4998041921E-02
          0                13           1             7    6     1      -0.1474378199E-04       7    6    1        -0.8586856031E-03      0.1045056377E-02
          0                14           1             7    6     1      -0.6404032418E-04       7    6    1        -0.3727051460E-02      0.3792858962E-02
          0                15           2             7    6     1      -0.1067396189E-03       7    6    1        -0.6211473758E-02      0.6272223116E-02
          0                16           1             7    6     1       0.5038981054E-04       7    6    1         0.2960331528E-02      0.3168129079E-02
          0                17           1             7    6     1      -0.6547474684E-04       7    6    1        -0.3880428356E-02      0.3983887280E-02
          0                18           1             7    6     1       0.3962129549E-04       7    6    1         0.2369942745E-02      0.2628768399E-02
          0                19           1             7    6     1       0.7278271962E-04       7    6    1         0.4352288227E-02      0.4457963636E-02
          0                20           1             7    6     1      -0.4101845125E-04       7    6    1        -0.2475918691E-02      0.2598514109E-02
                                                   Max.-Head-Change                         Max.-Flux-Residual
  Residual-Control   Outer-Iter.   Inner-Iter.     Column Row Layer    Maximum-Head-Change  Column Row Layer    Maximum-Flux-Residual          L2-NORM 
          0                21           1             7    6     1       0.2562605603E-04       7    6    1         0.1560621257E-02      0.1836857976E-02
          0                22           1             7    6     1      -0.6349923298E-04       7    6    1        -0.3901859178E-02      0.3994162805E-02
          0                23           1             2   13     1      -0.1019656143E-04       2   13    1        -0.5959437858E-03      0.1073937427E-02
          0                24           1             7    6     1       0.1964483092E-04       7    6    1         0.1218130325E-02      0.1584366575E-02
          0                25           1             7    6     1       0.2116852755E-04       7    6    1         0.1312316783E-02      0.1623349852E-02
          0                26           1             7    6     1       0.1678256946E-04       7    6    1         0.1040293048E-02      0.1382567637E-02
          0                27           1             7    6     1      -0.6923689406E-04       7    6    1        -0.4331683162E-02      0.4419690637E-02
     PET DIFF ERROR     6    7   -0.5030155163E-09    0.5999999608E-07
     PET DIFF ERROR     6    8   -0.5030155219E-09    0.5999999608E-07
          0                28           1             7    6     1       0.3333292928E-04       7    6    1         0.2104706149E-02      0.2378356747E-02
     PET DIFF ERROR     6    7   -0.5070377166E-09    0.5999999608E-07
     PET DIFF ERROR     6    8   -0.5070377216E-09    0.5999999608E-07
          0                29           1             2   13     1      -0.8904498996E-05       2   13    1        -0.5203957826E-03      0.1021360781E-02

    ------------------------------------------------
       NWT REQUIRED           29 OUTER ITERATIONS 
       AND A TOTAL OF         36 INNER ITERATIONS.
    ------------------------------------------------

 NO OUTPUT CONTROL FOR STRESS PERIOD   20   TIME STEP    8
     PET DIFF ERROR     6    7   -0.6277834346E-09    0.5999999608E-07
     PET DIFF ERROR     6    8   -0.6277834357E-09    0.5999999608E-07
 
 SOLVING FOR HEAD 
                                                   Max.-Head-Change                         Max.-Flux-Residual
  Residual-Control   Outer-Iter.   Inner-Iter.     Column Row Layer    Maximum-Head-Change  Column Row Layer    Maximum-Flux-Residual          L2-NORM 
          0                 1           2             6   13     1      -0.1725706169E-01       6   13    1        -0.9183924253E+00      0.2529365084E+01
          0                 2           2             2   13     1       0.3356240404E-02       2   13    1         0.1907075770E+00      0.5002734797E+00
          0                 3           2             7    6     1      -0.7247745012E-01       7    6    1        -0.3994343354E+01      0.3996019802E+01
          0                 4           2             7    6     1       0.7461548782E-01       7    6    1         0.4150106207E+01      0.4154980055E+01
          0                 5           2             7    6     1      -0.1640007562E-02       7    6    1        -0.9257688701E-01      0.9859459895E-01
          0                 6           2             7    6     1      -0.2994808717E-03       7    6    1        -0.1688915841E-01      0.1964376703E-01
          0                 7           1             7    6     1      -0.5475818313E-04       7    6    1        -0.3085249901E-02      0.5237985184E-02
          0                 8           1            10   10     1       0.1478199635E-04       7    6    1        -0.5643136426E-03      0.1963879982E-02
          0                 9           1            10   10     1       0.6641471905E-05      10   10    1         0.1725301245E-03      0.8471642327E-03

    ------------------------------------------------
       NWT REQUIRED            9 OUTER ITERATIONS 
       AND A TOTAL OF         15 INNER ITERATIONS.
    ------------------------------------------------

 NO OUTPUT CONTROL FOR STRESS PERIOD   20   TIME STEP    9
 
 SOLVING FOR HEAD 
                                                   Max.-Head-Change                         Max.-Flux-Residual
  Residual-Control   Outer-Iter.   Inner-Iter.     Column Row Layer    Maximum-Head-Change  Column Row Layer    Maximum-Flux-Residual          L2-NORM 
          0                 1           2             6   13     1      -0.1686260513E-01       6   13    1        -0.8972600970E+00      0.2441365580E+01
          0                 2           2             2   13     1       0.3263276965E-02       2   13    1         0.1854249806E+00      0.4921276372E+00
          0                 3           2             7    6     1      -0.7247767585E-01       7    6    1        -0.3994358340E+01      0.3996024787E+01
          0                 4           2             7    6     1       0.7461864613E-01       7    6    1         0.4150284399E+01      0.4150633616E+01
          0                 5           2             7    6     1      -0.1809773103E-02       7    6    1        -0.1021045928E+00      0.1065252526E+00
          0                 6           2             7    6     1      -0.3781281697E-03       7    6    1        -0.2130158397E-01      0.2351522244E-01
          0                 7           2             7    6     1      -0.1203575720E-03       7    6    1        -0.6765862964E-02      0.7995586324E-02
          0                 8           1             7    6     1      -0.9592040596E-04       7    6    1        -0.5384161562E-02      0.5746395877E-02
          0                 9           2             7    6     1       0.1216031258E-03       7    6    1         0.6887475388E-02      0.6996490752E-02
          0                10           1             2   13     1      -0.4790781127E-05       2   13    1        -0.2800116490E-03      0.6518850641E-03

    ------------------------------------------------
       NWT REQUIRED           10 OUTER ITERATIONS 
       AND A TOTAL OF         18 INNER ITERATIONS.
    ------------------------------------------------

 NO OUTPUT CONTROL FOR STRESS PERIOD   20   TIME STEP   10
 
 SOLVING FOR HEAD 
                                                   Max.-Head-Change                         Max.-Flux-Residual
  Residual-Control   Outer-Iter.   Inner-Iter.     Column Row Layer    Maximum-Head-Change  Column Row Layer    Maximum-Flux-Residual          L2-NORM 
          0                 1           2             6   13     1      -0.1648716814E-01       6   13    1        -0.8771446411E+00      0.2368697227E+01
          0                 2           2             1    2     1       0.1796128016E-02       6   13    1         0.8764078612E-01      0.3643823623E+00
          0                 3           2             1    2     1       0.8065125450E-03       1    2    1         0.2096339646E-01      0.1117371394E+00
          0                 4           2            10   10     1       0.3621134257E-03       1    2    1         0.9412115155E-02      0.4729983297E-01
          0                 5           2            10   10     1       0.1626959424E-03      10   10    1         0.4226458738E-02      0.2098549725E-01
          0                 6           1            10   10     1       0.7309848373E-04      10   10    1         0.1898928661E-02      0.9369961319E-02
          0                 7           1            10   10     1       0.3284275365E-04      10   10    1         0.8531791157E-03      0.4188505909E-02
          0                 8           1            10   10     1       0.1475605634E-04      10   10    1         0.3833286933E-03      0.1873030927E-02
          0                 9           1            10   10     1       0.6629802224E-05      10   10    1         0.1722272932E-03      0.8377813217E-03

    ------------------------------------------------
       NWT REQUIRED            9 OUTER ITERATIONS 
       AND A TOTAL OF         14 INNER ITERATIONS.
    ------------------------------------------------

 NO OUTPUT CONTROL FOR STRESS PERIOD   20   TIME STEP   11
 
 SOLVING FOR HEAD 
                                                   Max.-Head-Change                         Max.-Flux-Residual
  Residual-Control   Outer-Iter.   Inner-Iter.     Column Row Layer    Maximum-Head-Change  Column Row Layer    Maximum-Flux-Residual          L2-NORM 
          0                 1           2             6   13     1      -0.1611460801E-01       6   13    1        -0.8571601822E+00      0.2294566458E+01
          0                 2           2             2   13     1       0.3107985297E-02       2   13    1         0.1766035736E+00      0.4785481545E+00
          0                 3           2             7    6     1      -0.7247774336E-01       7    6    1        -0.3994366793E+01      0.3996022642E+01
          0                 4           2             7    6     1       0.7462032501E-01       7    6    1         0.4150382737E+01      0.4150971942E+01
     PET DIFF ERROR     6    7   -0.2160468831E-08    0.5999999608E-07
     PET DIFF ERROR     6    8   -0.2160468826E-08    0.5999999608E-07
          0                 5           2             7    6     1      -0.5551912401E-01       7    6    1        -0.3116393941E+01      0.3116546372E+01
          0                 6           2             7    6     1       0.5301676156E-01       7    6    1         0.3002990626E+01      0.3003047761E+01
     PET DIFF ERROR     6    7   -0.2436399172E-08    0.5999999608E-07
     PET DIFF ERROR     6    8   -0.2436399065E-08    0.5999999608E-07
          0                 7           2             7    6     1      -0.5094343387E-01       7    6    1        -0.2911965930E+01      0.2912010440E+01
          0                 8           2             7    6     1       0.4990218131E-01       7    6    1         0.2878454842E+01      0.2878497179E+01
          0                 9           2             7    6     1       0.1020645324E-02       7    6    1         0.5851401590E-01      0.6025768349E-01
          0                10           2             7    6     1       0.4055464378E-03       7    6    1         0.2330815321E-01      0.2355424094E-01
                                                   Max.-Head-Change                         Max.-Flux-Residual
  Residual-Control   Outer-Iter.   Inner-Iter.     Column Row Layer    Maximum-Head-Change  Column Row Layer    Maximum-Flux-Residual          L2-NORM 
          0                11           1             7    6     1       0.8391918757E-04       7    6    1         0.4819613175E-02      0.4893677186E-02
          0                12           1             7    6     1       0.1737965321E-04       7    6    1         0.9974138322E-03      0.1020469465E-02
          0                13           1             7    6     1       0.3602307019E-05       7    6    1         0.2065845117E-03      0.2148435505E-03

    ------------------------------------------------
       NWT REQUIRED           13 OUTER ITERATIONS 
       AND A TOTAL OF         23 INNER ITERATIONS.
    ------------------------------------------------

 NO OUTPUT CONTROL FOR STRESS PERIOD   20   TIME STEP   12
 
 SOLVING FOR HEAD 
                                                   Max.-Head-Change                         Max.-Flux-Residual
  Residual-Control   Outer-Iter.   Inner-Iter.     Column Row Layer    Maximum-Head-Change  Column Row Layer    Maximum-Flux-Residual          L2-NORM 
          0                 1           2             6   13     1      -0.1575759617E-01       6   13    1        -0.8380667355E+00      0.2232060429E+01
          0                 2           2             2   13     1       0.2521128568E-02       2   13    1         0.1432044964E+00      0.4358061863E+00
          0                 3           2             7    6     1      -0.5316864824E-01       7    6    1        -0.2930285839E+01      0.2932479628E+01
          0                 4           2             7    6     1       0.5376988327E-01       7    6    1         0.2990685233E+01      0.2991788529E+01
          0                 5           2             7    6     1      -0.3860334829E-03       7    6    1        -0.2205270320E-01      0.3465251513E-01
          0                 6           1            10   10     1       0.7297047390E-04       7    6    1        -0.3954509219E-02      0.1051529653E-01
          0                 7           1            10   10     1       0.3278517809E-04      10   10    1         0.8516847409E-03      0.4268215831E-02
          0                 8           1            10   10     1       0.1473015984E-04      10   10    1         0.3826565599E-03      0.1876787331E-02
          0                 9           1            10   10     1       0.6618154803E-05      10   10    1         0.1719249892E-03      0.8371559308E-03

    ------------------------------------------------
       NWT REQUIRED            9 OUTER ITERATIONS 
       AND A TOTAL OF         14 INNER ITERATIONS.
    ------------------------------------------------

 NO OUTPUT CONTROL FOR STRESS PERIOD   20   TIME STEP   13
 
 SOLVING FOR HEAD 
                                                   Max.-Head-Change                         Max.-Flux-Residual
  Residual-Control   Outer-Iter.   Inner-Iter.     Column Row Layer    Maximum-Head-Change  Column Row Layer    Maximum-Flux-Residual          L2-NORM 
          0                 1           2             6   13     1      -0.1540738027E-01       6   13    1        -0.8193602528E+00      0.2172216093E+01
          0                 2           2             2   13     1       0.2976449045E-02       2   13    1         0.1691335784E+00      0.4670309536E+00
          0                 3           2             7    6     1      -0.7244080149E-01       7    6    1        -0.3992336031E+01      0.3993995692E+01
          0                 4           2             7    6     1       0.7458537268E-01       7    6    1         0.4148443718E+01      0.4153432304E+01
          0                 5           2             7    6     1      -0.1646203612E-02       7    6    1        -0.9292474341E-01      0.1012908840E+00
          0                 6           2             7    6     1      -0.3006212980E-03       7    6    1        -0.1695312214E-01      0.1975342357E-01
          0                 7           1             7    6     1      -0.5496835379E-04       7    6    1        -0.3097027135E-02      0.5229091110E-02
          0                 8           1            10   10     1       0.1471703526E-04       7    6    1        -0.5664848188E-03      0.1954997741E-02
          0                 9           1            10   10     1       0.6612251682E-05      10   10    1         0.1717717705E-03      0.8426730091E-03

    ------------------------------------------------
       NWT REQUIRED            9 OUTER ITERATIONS 
       AND A TOTAL OF         15 INNER ITERATIONS.
    ------------------------------------------------

 NO OUTPUT CONTROL FOR STRESS PERIOD   20   TIME STEP   14
 
 SOLVING FOR HEAD 
                                                   Max.-Head-Change                         Max.-Flux-Residual
  Residual-Control   Outer-Iter.   Inner-Iter.     Column Row Layer    Maximum-Head-Change  Column Row Layer    Maximum-Flux-Residual          L2-NORM 
          0                 1           2             6   13     1      -0.1506327490E-01       6   13    1        -0.8009800260E+00      0.2114203404E+01
          0                 2           2             2   13     1       0.2912351773E-02       2   13    1         0.1654930632E+00      0.4614938332E+00
          0                 3           2             7    6     1      -0.7247827641E-01       7    6    1        -0.3994403688E+01      0.3996066079E+01
          0                 4           2             7    6     1       0.7462808720E-01       7    6    1         0.4150821996E+01      0.4151184227E+01
          0                 5           2             7    6     1      -0.1915046174E-02       7    6    1        -0.1080131921E+00      0.1121872817E+00
          0                 6           2             7    6     1      -0.4536563477E-03       7    6    1        -0.2553956540E-01      0.2740062320E-01
          0                 7           1             7    6     1       0.3824588695E-04       7    6    1         0.2155581598E-02      0.4821501138E-02
          0                 8           1             7    6     1      -0.2778057741E-04       7    6    1        -0.1589956295E-02      0.2535117828E-02
          0                 9           1             7    6     1      -0.7619897778E-04       7    6    1        -0.4355147119E-02      0.4498531157E-02
          0                10           1             7    6     1       0.8597611360E-04       7    6    1         0.4959170039E-02      0.5063211565E-02
                                                   Max.-Head-Change                         Max.-Flux-Residual
  Residual-Control   Outer-Iter.   Inner-Iter.     Column Row Layer    Maximum-Head-Change  Column Row Layer    Maximum-Flux-Residual          L2-NORM 
          0                11           1             7    6     1      -0.1952103280E-04       7    6    1        -0.1136714910E-02      0.1320001454E-02
          0                12           1             7    6     1      -0.7510108814E-04       7    6    1        -0.4370826950E-02      0.4439239806E-02
          0                13           1             7    6     1       0.6565445143E-04       7    6    1         0.3856505712E-02      0.3977610156E-02
          0                14           1             7    6     1      -0.3275443260E-04       7    6    1        -0.1941587887E-02      0.2071696197E-02
          0                15           1             7    6     1      -0.9446120816E-04       7    6    1        -0.5597998166E-02      0.5666059195E-02
          0                16           1             7    6     1       0.3524874494E-04       7    6    1         0.2108787141E-02      0.2390569620E-02
          0                17           1             7    6     1       0.7477962895E-04       7    6    1         0.4471917441E-02      0.4569793163E-02
          0                18           1             7    6     1      -0.3403064973E-04       7    6    1        -0.2054240294E-02      0.2188367906E-02
          0                19           1             7    6     1       0.3283112425E-04       7    6    1         0.1999344435E-02      0.2200884558E-02
          0                20           1             7    6     1      -0.4983878775E-04       7    6    1        -0.3062627906E-02      0.3161182473E-02
                                                   Max.-Head-Change                         Max.-Flux-Residual
  Residual-Control   Outer-Iter.   Inner-Iter.     Column Row Layer    Maximum-Head-Change  Column Row Layer    Maximum-Flux-Residual          L2-NORM 
          0                21           1             7    6     1       0.1323024542E-04       7    6    1         0.8206535617E-03      0.1271306283E-02
          0                22           1             7    6     1      -0.6883037773E-04       7    6    1        -0.4306302234E-02      0.4395204137E-02
          0                23           1             7    6     1      -0.1623188496E-04       7    6    1        -0.1014968575E-02      0.1505292323E-02
          0                24           1             2   13     1      -0.1051569228E-04       2   13    1        -0.6144865420E-03      0.1090626587E-02
          0                25           1             2   13     1      -0.1037581029E-04       2   13    1        -0.6062951925E-03      0.1079543235E-02
          0                26           1             7    6     1      -0.1046350769E-04       7    6    1        -0.6664774126E-03      0.1270786871E-02
     PET DIFF ERROR     6    7   -0.5021248963E-09    0.5999999608E-07
     PET DIFF ERROR     6    8   -0.5021249027E-09    0.5999999608E-07
          0                27           1             7    6     1       0.4743859841E-04       7    6    1         0.3049082399E-02      0.3246263375E-02
     PET DIFF ERROR     6    7   -0.6152439725E-09    0.5999999608E-07
     PET DIFF ERROR     6    8   -0.6152439765E-09    0.5999999608E-07
          0                28           2             7    6     1      -0.4906028926E-01       7    6    1        -0.3181639403E+01      0.3181639545E+01
          0                29           2             7    6     1       0.4223590503E-01       7    6    1         0.2764069931E+01      0.2764111357E+01
     PET DIFF ERROR     6    7   -0.6969617848E-09    0.5999999608E-07
     PET DIFF ERROR     6    8   -0.6969617859E-09    0.5999999608E-07
          0                30           2             7    6     1      -0.4308118073E-01       7    6    1        -0.2844589732E+01      0.2844603485E+01
                                                   Max.-Head-Change                         Max.-Flux-Residual
  Residual-Control   Outer-Iter.   Inner-Iter.     Column Row Layer    Maximum-Head-Change  Column Row Layer    Maximum-Flux-Residual          L2-NORM 
          0                31           2             7    6     1       0.4224851587E-01       7    6    1         0.2814694995E+01      0.2814715927E+01
     PET DIFF ERROR     6    7   -0.8708140166E-09    0.5999999608E-07
     PET DIFF ERROR     6    8   -0.8708140065E-09    0.5999999608E-07
          0                32           2             7    6     1      -0.4133135751E-01       7    6    1        -0.2778292419E+01      0.2778310074E+01
          0                33           2             7    6     1       0.4068868671E-01       7    6    1         0.2759583247E+01      0.2759601226E+01
     PET DIFF ERROR     6    7   -0.1014069409E-08    0.5999999608E-07
     PET DIFF ERROR     6    8   -0.1014069374E-08    0.5999999608E-07
          0                34           2             7    6     1      -0.3965423081E-01       7    6    1        -0.2713510018E+01      0.2713526931E+01
          0                35           2             7    6     1       0.3907041779E-01       7    6    1         0.2697440645E+01      0.2697457349E+01
     PET DIFF ERROR     6    7   -0.9394030482E-09    0.5999999608E-07
     PET DIFF ERROR     6    8   -0.9394029687E-09    0.5999999608E-07
          0                36           2             7    6     1      -0.3797878824E-01       7    6    1        -0.2645504100E+01      0.2645519863E+01
          0                37           2             7    6     1       0.3744928899E-01       7    6    1         0.2631866026E+01      0.2631881361E+01
          0                38           2             7    6     1       0.6090916399E-02       7    6    1         0.4278082046E+00      0.4278962995E+00
          0                39           2             7    6     1       0.2464811159E-02       7    6    1         0.1730902024E+00      0.1731582340E+00
          0                40           2             7    6     1       0.7886536832E-03       7    6    1         0.5536299890E-01      0.5541033818E-01
                                                   Max.-Head-Change                         Max.-Flux-Residual
  Residual-Control   Outer-Iter.   Inner-Iter.     Column Row Layer    Maximum-Head-Change  Column Row Layer    Maximum-Flux-Residual          L2-NORM 
          0                41           2             7    6     1       0.3453424467E-03       7    6    1         0.2424289531E-01      0.2426431106E-01
          0                42           2             7    6     1       0.1203826621E-03       7    6    1         0.8448669090E-02      0.8459516422E-02
          0                43           1             7    6     1       0.4196934110E-04       7    6    1         0.2944782992E-02      0.2950070541E-02
          0                44           1             7    6     1       0.1463357224E-04       7    6    1         0.1026537432E-02      0.1028951314E-02
          0                45           1             7    6     1       0.5102871182E-05       7    6    1         0.3578890469E-03      0.3589414514E-03

    ------------------------------------------------
       NWT REQUIRED           45 OUTER ITERATIONS 
       AND A TOTAL OF         66 INNER ITERATIONS.
    ------------------------------------------------

 NO OUTPUT CONTROL FOR STRESS PERIOD   20   TIME STEP   15
 
 SOLVING FOR HEAD 
                                                   Max.-Head-Change                         Max.-Flux-Residual
  Residual-Control   Outer-Iter.   Inner-Iter.     Column Row Layer    Maximum-Head-Change  Column Row Layer    Maximum-Flux-Residual          L2-NORM 
          0                 1           2             6   13     1      -0.1473415848E-01       6   13    1        -0.7835651912E+00      0.2060620154E+01
          0                 2           2             2   13     1       0.2360237147E-02       2   13    1         0.1340763665E+00      0.4188923141E+00
          0                 3           2             7    6     1      -0.5376125148E-01       7    6    1        -0.2962948546E+01      0.2965106957E+01
          0                 4           2             7    6     1       0.5441656558E-01       7    6    1         0.3026659207E+01      0.3027422970E+01
     PET DIFF ERROR     6    7   -0.2822340999E-08    0.5999999608E-07
     PET DIFF ERROR     6    8   -0.2822341034E-08    0.5999999608E-07
          0                 5           2             7    6     1      -0.3627982620E-01       7    6    1        -0.2036501996E+01      0.2036676025E+01
          0                 6           2             7    6     1       0.3420072738E-01       7    6    1         0.1937212329E+01      0.1937268846E+01
     PET DIFF ERROR     6    7   -0.3409821371E-08    0.5999999608E-07
     PET DIFF ERROR     6    8   -0.3409821325E-08    0.5999999608E-07
          0                 7           2             7    6     1      -0.3188611904E-01       7    6    1        -0.1822647520E+01      0.1822680116E+01
          0                 8           2             7    6     1       0.3117405254E-01       7    6    1         0.1798187720E+01      0.1798226544E+01
     PET DIFF ERROR     6    7   -0.2265719936E-08    0.5999999608E-07
     PET DIFF ERROR     6    8   -0.2265719774E-08    0.5999999608E-07
          0                 9           2             7    6     1      -0.2826696717E-01       7    6    1        -0.1645397865E+01      0.1645422626E+01
          0                10           2             7    6     1       0.2764043832E-01       7    6    1         0.1623561447E+01      0.1623587797E+01
     PET DIFF ERROR     6    7   -0.6319243849E-09    0.5999999608E-07
     PET DIFF ERROR     6    8   -0.6319241744E-09    0.5999999608E-07
                                                   Max.-Head-Change                         Max.-Flux-Residual
  Residual-Control   Outer-Iter.   Inner-Iter.     Column Row Layer    Maximum-Head-Change  Column Row Layer    Maximum-Flux-Residual          L2-NORM 
          0                11           2             7    6     1      -0.2568559991E-01       7    6    1        -0.1522489910E+01      0.1522510320E+01
          0                12           2             7    6     1       0.2518103003E-01       7    6    1         0.1506136282E+01      0.1506153815E+01
          0                13           2             7    6     1       0.2508526570E-02       7    6    1         0.1498489356E+00      0.1500168026E+00
          0                14           2             7    6     1       0.6798491839E-03       7    6    1         0.4059582949E-01      0.4067627289E-01
          0                15           2             7    6     1       0.1584256729E-03       7    6    1         0.9454049901E-02      0.9490854344E-02
          0                16           1             7    6     1       0.3834847901E-04       7    6    1         0.2287210503E-02      0.2301035709E-02
          0                17           1             7    6     1       0.8991679614E-05       7    6    1         0.5359512070E-03      0.5408639435E-03

    ------------------------------------------------
       NWT REQUIRED           17 OUTER ITERATIONS 
       AND A TOTAL OF         32 INNER ITERATIONS.
    ------------------------------------------------

 NO OUTPUT CONTROL FOR STRESS PERIOD   20   TIME STEP   16
 
 SOLVING FOR HEAD 
                                                   Max.-Head-Change                         Max.-Flux-Residual
  Residual-Control   Outer-Iter.   Inner-Iter.     Column Row Layer    Maximum-Head-Change  Column Row Layer    Maximum-Flux-Residual          L2-NORM 
          0                 1           2             6   13     1      -0.1441256709E-01       6   13    1        -0.7662424945E+00      0.2018494107E+01
          0                 2           2             2   13     1       0.2807099102E-02       2   13    1         0.1595207685E+00      0.4520190911E+00
          0                 3           2             7    6     1      -0.7236994779E-01       7    6    1        -0.3988433575E+01      0.3990109516E+01
          0                 4           2             7    6     1       0.7451540613E-01       7    6    1         0.4144559136E+01      0.4149628560E+01
          0                 5           2             7    6     1      -0.1647787021E-02       7    6    1        -0.9301211644E-01      0.1000703070E+00
          0                 6           2             7    6     1      -0.3009255889E-03       7    6    1        -0.1696959108E-01      0.1970990502E-01
          0                 7           1             7    6     1      -0.5502805886E-04       7    6    1        -0.3100217679E-02      0.5220484595E-02
          0                 8           1            10   10     1       0.1467812249E-04       7    6    1        -0.5671140739E-03      0.1950079503E-02
          0                 9           1            10   10     1       0.6594750912E-05      10   10    1         0.1713175086E-03      0.8402795089E-03

    ------------------------------------------------
       NWT REQUIRED            9 OUTER ITERATIONS 
       AND A TOTAL OF         15 INNER ITERATIONS.
    ------------------------------------------------

 NO OUTPUT CONTROL FOR STRESS PERIOD   20   TIME STEP   17
 
 SOLVING FOR HEAD 
                                                   Max.-Head-Change                         Max.-Flux-Residual
  Residual-Control   Outer-Iter.   Inner-Iter.     Column Row Layer    Maximum-Head-Change  Column Row Layer    Maximum-Flux-Residual          L2-NORM 
          0                 1           2             6   13     1      -0.1409493551E-01       6   13    1        -0.7492827656E+00      0.1972884706E+01
          0                 2           2             2   13     1       0.2757218300E-02       2   13    1         0.1566886925E+00      0.4475857959E+00
          0                 3           2             7    6     1      -0.7247903993E-01       7    6    1        -0.3994447694E+01      0.3996129202E+01
          0                 4           2             7    6     1       0.7463574195E-01       7    6    1         0.4151254675E+01      0.4151589064E+01
          0                 5           2             7    6     1      -0.2037617349E-02       7    6    1        -0.1148912667E+00      0.1188014652E+00
          0                 6           2             7    6     1      -0.2088962011E-03       7    6    1        -0.1180166997E-01      0.1541112377E-01
          0                 7           1             7    6     1      -0.7035712246E-04       7    6    1        -0.3960724848E-02      0.5795499493E-02
          0                 8           1             7    6     1      -0.9714095485E-04       7    6    1        -0.5453255743E-02      0.5802075003E-02
          0                 9           2             7    6     1       0.1554199628E-03       7    6    1         0.8802605061E-02      0.8888235648E-02
          0                10           1             7    6     1       0.2046963433E-04       7    6    1         0.1158039648E-02      0.1280494915E-02
                                                   Max.-Head-Change                         Max.-Flux-Residual
  Residual-Control   Outer-Iter.   Inner-Iter.     Column Row Layer    Maximum-Head-Change  Column Row Layer    Maximum-Flux-Residual          L2-NORM 
          0                11           1             7    6     1      -0.2854726709E-04       7    6    1        -0.1631929435E-02      0.1701708423E-02
          0                12           1             7    6     1      -0.5312938493E-04       7    6    1        -0.3036230017E-02      0.3085314211E-02
          0                13           1             7    6     1      -0.8104377362E-04       7    6    1        -0.4631192797E-02      0.4680289292E-02
          0                14           2             7    6     1       0.1314318523E-03       7    6    1         0.7580740896E-02      0.7630533469E-02
          0                15           1             7    6     1       0.1457453539E-04       7    6    1         0.8395809209E-03      0.9444590569E-03
          0                16           1             7    6     1      -0.2981857204E-04       7    6    1        -0.1735692873E-02      0.1803843979E-02
          0                17           1             7    6     1      -0.5320476656E-04       7    6    1        -0.3096179430E-02      0.3150975551E-02
          0                18           1             7    6     1      -0.7955111506E-04       7    6    1        -0.4629109527E-02      0.4684217924E-02
          0                19           2             7    6     1       0.1111181216E-03       7    6    1         0.6526407400E-02      0.6589582084E-02
          0                20           1             2   13     1      -0.5016564878E-05       2   13    1        -0.2931652543E-03      0.5748537505E-03

    ------------------------------------------------
       NWT REQUIRED           20 OUTER ITERATIONS 
       AND A TOTAL OF         29 INNER ITERATIONS.
    ------------------------------------------------

 NO OUTPUT CONTROL FOR STRESS PERIOD   20   TIME STEP   18
 
 SOLVING FOR HEAD 
                                                   Max.-Head-Change                         Max.-Flux-Residual
  Residual-Control   Outer-Iter.   Inner-Iter.     Column Row Layer    Maximum-Head-Change  Column Row Layer    Maximum-Flux-Residual          L2-NORM 
          0                 1           2             6   13     1      -0.1379543282E-01       6   13    1        -0.7333991540E+00      0.1932922663E+01
          0                 2           2             1    2     1       0.1785453258E-02       6   13    1         0.7333116379E-01      0.3362429485E+00
          0                 3           2             1    2     1       0.8017235921E-03       1    2    1         0.2083886457E-01      0.1105075223E+00
          0                 4           2             1    2     1       0.3598865383E-03       1    2    1         0.9356232827E-02      0.4701138046E-01
          0                 5           2            10   10     1       0.1615519400E-03       1    2    1         0.4199743925E-02      0.2085049799E-01
          0                 6           1            10   10     1       0.7258396405E-04      10   10    1         0.1885573794E-02      0.9305811099E-02
          0                 7           1            10   10     1       0.3261134716E-04      10   10    1         0.8471727123E-03      0.4158446316E-02
          0                 8           1            10   10     1       0.1465198063E-04      10   10    1         0.3806272958E-03      0.1859096520E-02
          0                 9           1            10   10     1       0.6582994192E-05      10   10    1         0.1710123412E-03      0.8313723028E-03

    ------------------------------------------------
       NWT REQUIRED            9 OUTER ITERATIONS 
       AND A TOTAL OF         14 INNER ITERATIONS.
    ------------------------------------------------

 NO OUTPUT CONTROL FOR STRESS PERIOD   20   TIME STEP   19
 
 SOLVING FOR HEAD 
                                                   Max.-Head-Change                         Max.-Flux-Residual
  Residual-Control   Outer-Iter.   Inner-Iter.     Column Row Layer    Maximum-Head-Change  Column Row Layer    Maximum-Flux-Residual          L2-NORM 
          0                 1           2             6   13     1      -0.1349452849E-01       6   13    1        -0.7172464156E+00      0.1897049298E+01
          0                 2           2             2   13     1       0.2673680725E-02       2   13    1         0.1519475325E+00      0.4399170789E+00
          0                 3           2             7    6     1      -0.7247903863E-01       7    6    1        -0.3994452313E+01      0.3996151610E+01
          0                 4           2             7    6     1       0.7463667443E-01       7    6    1         0.4151311318E+01      0.4151821008E+01
          0                 5           2             7    6     1      -0.2082296031E-02       7    6    1        -0.1173989001E+00      0.1212588882E+00
     PET DIFF ERROR     6    7   -0.5829216380E-09    0.5999999608E-07
     PET DIFF ERROR     6    8   -0.5829216524E-09    0.5999999608E-07
          0                 6           2             7    6     1      -0.3762149656E-03       7    6    1        -0.2119157261E-01      0.2340259454E-01
     PET DIFF ERROR     6    7   -0.7927197644E-09    0.5999999608E-07
     PET DIFF ERROR     6    8   -0.7927197803E-09    0.5999999608E-07
          0                 7           2             7    6     1      -0.5583396613E-01       7    6    1        -0.3133493456E+01      0.3133496443E+01
          0                 8           2             7    6     1       0.5595794611E-01       7    6    1         0.3169618907E+01      0.3169678701E+01
     PET DIFF ERROR     6    7   -0.9818285570E-09    0.5999999608E-07
     PET DIFF ERROR     6    8   -0.9818285729E-09    0.5999999608E-07
          0                 9           2             7    6     1      -0.5436581000E-01       7    6    1        -0.3107528120E+01      0.3107568161E+01
          0                10           2             7    6     1       0.5329099179E-01       7    6    1         0.3073886991E+01      0.3073928069E+01
     PET DIFF ERROR     6    7   -0.1456299157E-08    0.5999999608E-07
     PET DIFF ERROR     6    8   -0.1456299165E-08    0.5999999608E-07
                                                   Max.-Head-Change                         Max.-Flux-Residual
  Residual-Control   Outer-Iter.   Inner-Iter.     Column Row Layer    Maximum-Head-Change  Column Row Layer    Maximum-Flux-Residual          L2-NORM 
          0                11           2             7    6     1      -0.5185521609E-01       7    6    1        -0.3018373098E+01      0.3018411770E+01
          0                12           2             7    6     1       0.5086399860E-01       7    6    1         0.2987627675E+01      0.2987665662E+01
     PET DIFF ERROR     6    7   -0.2048891482E-08    0.5999999608E-07
     PET DIFF ERROR     6    8   -0.2048891449E-08    0.5999999608E-07
          0                13           2             7    6     1      -0.4915003348E-01       7    6    1        -0.2913259263E+01      0.2913294996E+01
          0                14           2             7    6     1       0.4822944940E-01       7    6    1         0.2884662458E+01      0.2884698647E+01
     PET DIFF ERROR     6    7   -0.1631721562E-08    0.5999999608E-07
     PET DIFF ERROR     6    8   -0.1631721430E-08    0.5999999608E-07
          0                15           2             7    6     1      -0.4616381051E-01       7    6    1        -0.2786226040E+01      0.2786258901E+01
          0                16           2             7    6     1       0.4532792424E-01       7    6    1         0.2760575129E+01      0.2760606779E+01
          0                17           2             7    6     1       0.3102567875E-02       7    6    1         0.1886235925E+00      0.1890431192E+00
          0                18           2             7    6     1       0.7707958684E-03       7    6    1         0.4683454377E-01      0.4702264674E-01
          0                19           2             7    6     1       0.1915906679E-03       7    6    1         0.1163465819E-01      0.1170833457E-01
          0                20           1             7    6     1       0.4764591474E-04       7    6    1         0.2891729523E-02      0.2918252156E-02
                                                   Max.-Head-Change                         Max.-Flux-Residual
  Residual-Control   Outer-Iter.   Inner-Iter.     Column Row Layer    Maximum-Head-Change  Column Row Layer    Maximum-Flux-Residual          L2-NORM 
          0                21           1             7    6     1       0.1185476290E-04       7    6    1         0.7190813806E-03      0.7280997622E-03
          0                22           1             7    6     1       0.2951043124E-05       7    6    1         0.1789016492E-03      0.1818510358E-03

    ------------------------------------------------
       NWT REQUIRED           22 OUTER ITERATIONS 
       AND A TOTAL OF         41 INNER ITERATIONS.
    ------------------------------------------------

 NO OUTPUT CONTROL FOR STRESS PERIOD   20   TIME STEP   20
 
 SOLVING FOR HEAD 
                                                   Max.-Head-Change                         Max.-Flux-Residual
  Residual-Control   Outer-Iter.   Inner-Iter.     Column Row Layer    Maximum-Head-Change  Column Row Layer    Maximum-Flux-Residual          L2-NORM 
          0                 1           2             6   13     1      -0.1320916095E-01       6   13    1        -0.7020775904E+00      0.1862667677E+01
          0                 2           2             2   13     1       0.2116790896E-02       2   13    1         0.1202604249E+00      0.4011576925E+00
     PET DIFF ERROR     6    7   -0.1981026417E-07    0.5999999608E-07
     PET DIFF ERROR     6    8   -0.1981026385E-07    0.5999999608E-07
          0                 3           2             7    6     1      -0.5335137944E-01       7    6    1        -0.2940364876E+01      0.2942572080E+01
          0                 4           2             7    6     1       0.5398187055E-01       7    6    1         0.3002490069E+01      0.3003468697E+01
     PET DIFF ERROR     6    7   -0.2930211525E-08    0.5999999608E-07
     PET DIFF ERROR     6    8   -0.2930211369E-08    0.5999999608E-07
          0                 5           2             7    6     1      -0.3182308280E-01       7    6    1        -0.1786380263E+01      0.1786577668E+01
          0                 6           2             7    6     1       0.2950869153E-01       7    6    1         0.1671444731E+01      0.1671503108E+01
          0                 7           2             7    6     1       0.1037214050E-02       7    6    1         0.5853013668E-01      0.5932054201E-01
          0                 8           2             7    6     1       0.6266365582E-03       7    6    1         0.3543985034E-01      0.3556828451E-01
          0                 9           1             7    6     1       0.8773690819E-04       7    6    1         0.4954059410E-02      0.5060310103E-02
          0                10           1             7    6     1       0.4934613655E-04       7    6    1         0.2791055591E-02      0.2821234908E-02
          0                11           1             7    6     1       0.9161579187E-05       7    6    1         0.5177353594E-03      0.5457758416E-03

    ------------------------------------------------
       NWT REQUIRED           11 OUTER ITERATIONS 
       AND A TOTAL OF         19 INNER ITERATIONS.
    ------------------------------------------------

 NO OUTPUT CONTROL FOR STRESS PERIOD   20   TIME STEP   21
 
 SOLVING FOR HEAD 
                                                   Max.-Head-Change                         Max.-Flux-Residual
  Residual-Control   Outer-Iter.   Inner-Iter.     Column Row Layer    Maximum-Head-Change  Column Row Layer    Maximum-Flux-Residual          L2-NORM 
          0                 1           2             6   13     1      -0.1292758206E-01       6   13    1        -0.6870326719E+00      0.1831642969E+01
          0                 2           2             2   13     1       0.2606195510E-02       2   13    1         0.1481189826E+00      0.4329309841E+00
          0                 3           2             7    6     1      -0.7244658204E-01       7    6    1        -0.3992668684E+01      0.3994387469E+01
          0                 4           2             7    6     1       0.7460587223E-01       7    6    1         0.4149602952E+01      0.4154785782E+01
          0                 5           2             7    6     1      -0.1659774111E-02       7    6    1        -0.9368582498E-01      0.9972203466E-01
          0                 6           2             7    6     1      -0.3031283538E-03       7    6    1        -0.1709327606E-01      0.1976612594E-01
          0                 7           1             7    6     1      -0.5543334920E-04       7    6    1        -0.3122954276E-02      0.5218363058E-02
          0                 8           1             1    4     1       0.1462807427E-04       7    6    1        -0.5712988307E-03      0.1943000973E-02
          0                 9           1             1    4     1       0.6572286188E-05       1    4    1         0.1707335106E-03      0.8364377380E-03

    ------------------------------------------------
       NWT REQUIRED            9 OUTER ITERATIONS 
       AND A TOTAL OF         15 INNER ITERATIONS.
    ------------------------------------------------

 NO OUTPUT CONTROL FOR STRESS PERIOD   20   TIME STEP   22
 
 SOLVING FOR HEAD 
                                                   Max.-Head-Change                         Max.-Flux-Residual
  Residual-Control   Outer-Iter.   Inner-Iter.     Column Row Layer    Maximum-Head-Change  Column Row Layer    Maximum-Flux-Residual          L2-NORM 
          0                 1           2             6   13     1      -0.1264864779E-01       6   13    1        -0.6721098642E+00      0.1801825036E+01
          0                 2           2             2   13     1       0.2566804175E-02       2   13    1         0.1458827735E+00      0.4303461565E+00
          0                 3           2             7    6     1      -0.7247946736E-01       7    6    1        -0.3994483383E+01      0.3996216195E+01
          0                 4           2             7    6     1       0.7464328395E-01       7    6    1         0.4151686216E+01      0.4152034578E+01
          0                 5           2             7    6     1      -0.1854181645E-02       7    6    1        -0.1045968128E+00      0.1088650125E+00
          0                 6           2             7    6     1      -0.3992125005E-03       7    6    1        -0.2248416828E-01      0.2454705654E-01
          0                 7           2             7    6     1      -0.1417186774E-03       7    6    1        -0.7964353117E-02      0.9015893062E-02
          0                 8           2             7    6     1      -0.1302750973E-03       7    6    1        -0.7311973922E-02      0.7593891209E-02
          0                 9           2             7    6     1       0.1221053610E-03       7    6    1         0.6916309395E-02      0.7062064981E-02
          0                10           1             7    6     1      -0.1970117823E-04       7    6    1        -0.1126829782E-02      0.1390177451E-02
                                                   Max.-Head-Change                         Max.-Flux-Residual
  Residual-Control   Outer-Iter.   Inner-Iter.     Column Row Layer    Maximum-Head-Change  Column Row Layer    Maximum-Flux-Residual          L2-NORM 
          0                11           1             7    6     1      -0.9555280787E-04       7    6    1        -0.5460997102E-02      0.5532962502E-02
          0                12           1             7    6     1       0.9951595764E-04       7    6    1         0.5740232925E-02      0.5851366278E-02
          0                13           1             7    6     1      -0.2898049298E-04       7    6    1        -0.1687330534E-02      0.1855183404E-02
          0                14           1             7    6     1       0.9115330668E-04       7    6    1         0.5353526662E-02      0.5435025184E-02
          0                15           1             7    6     1      -0.1344660908E-04       7    6    1        -0.7976608672E-03      0.1020393382E-02
          0                16           1             7    6     1      -0.6606228176E-04       7    6    1        -0.3915171915E-02      0.3987269744E-02
          0                17           1             7    6     1       0.6274400116E-04       7    6    1         0.3752832008E-02      0.3867934734E-02
          0                18           1             7    6     1      -0.2572300249E-04       7    6    1        -0.1552696323E-02      0.1699430989E-02
          0                19           1             7    6     1      -0.7903199320E-04       7    6    1        -0.4769130391E-02      0.4840525429E-02
          0                20           1             7    6     1       0.3905646653E-04       7    6    1         0.2378989621E-02      0.2597962000E-02
                                                   Max.-Head-Change                         Max.-Flux-Residual
  Residual-Control   Outer-Iter.   Inner-Iter.     Column Row Layer    Maximum-Head-Change  Column Row Layer    Maximum-Flux-Residual          L2-NORM 
          0                21           1             7    6     1      -0.5227530833E-04       7    6    1        -0.3212254062E-02      0.3323561481E-02
          0                22           1             7    6     1       0.3012998452E-04       7    6    1         0.1868534224E-02      0.2146697875E-02
          0                23           1             7    6     1      -0.6208745638E-04       7    6    1        -0.3884553583E-02      0.3989197745E-02
          0                24           1             2   13     1      -0.1098165152E-04       2   13    1        -0.6416456954E-03      0.1221219946E-02
          0                25           1             7    6     1       0.3205510468E-04       7    6    1         0.2023657093E-02      0.2280105240E-02
          0                26           1             7    6     1       0.3553881717E-04       7    6    1         0.2243228703E-02      0.2439451664E-02
          0                27           1             7    6     1      -0.5574863962E-04       7    6    1        -0.3551429171E-02      0.3658573723E-02
          0                28           1             7    6     1      -0.1944617417E-04       7    6    1        -0.1238293091E-02      0.1651975289E-02
          0                29           1             2   13     1      -0.1054963973E-04       2   13    1        -0.6163558655E-03      0.1212574261E-02
          0                30           1             7    6     1      -0.1152795414E-04       7    6    1        -0.7341351334E-03      0.1326150383E-02
     PET DIFF ERROR     6    7   -0.5048578171E-09    0.5999999608E-07
     PET DIFF ERROR     6    8   -0.5048578198E-09    0.5999999608E-07
                                                   Max.-Head-Change                         Max.-Flux-Residual
  Residual-Control   Outer-Iter.   Inner-Iter.     Column Row Layer    Maximum-Head-Change  Column Row Layer    Maximum-Flux-Residual          L2-NORM 
          0                31           1             7    6     1       0.4530534563E-04       7    6    1         0.2911921540E-02      0.3123465231E-02
     PET DIFF ERROR     6    7   -0.6067810217E-09    0.5999999608E-07
     PET DIFF ERROR     6    8   -0.6067810206E-09    0.5999999608E-07
          0                32           2             7    6     1      -0.4909084281E-01       7    6    1        -0.3183506465E+01      0.3183506614E+01
          0                33           2             7    6     1       0.4228087174E-01       7    6    1         0.2766961166E+01      0.2767013978E+01
     PET DIFF ERROR     6    7   -0.6736273695E-09    0.5999999608E-07
     PET DIFF ERROR     6    8   -0.6736273644E-09    0.5999999608E-07
          0                34           2             7    6     1      -0.4312628046E-01       7    6    1        -0.2847483238E+01      0.2847499346E+01
          0                35           2             7    6     1       0.4229275679E-01       7    6    1         0.2817572804E+01      0.2817598918E+01
     PET DIFF ERROR     6    7   -0.8009816363E-09    0.5999999608E-07
     PET DIFF ERROR     6    8   -0.8009816180E-09    0.5999999608E-07
          0                36           2             7    6     1      -0.4138927046E-01       7    6    1        -0.2782110722E+01      0.2782132209E+01
          0                37           2             7    6     1       0.4074419444E-01       7    6    1         0.2763275651E+01      0.2763297632E+01
     PET DIFF ERROR     6    7   -0.8635178452E-09    0.5999999608E-07
     PET DIFF ERROR     6    8   -0.8635178018E-09    0.5999999608E-07
          0                38           2             7    6     1      -0.3975146112E-01       7    6    1        -0.2720091381E+01      0.2720112129E+01
          0                39           2             7    6     1       0.3916119638E-01       7    6    1         0.2703636476E+01      0.2703656682E+01
     PET DIFF ERROR     6    7   -0.7324568713E-09    0.5999999608E-07
     PET DIFF ERROR     6    8   -0.7324567909E-09    0.5999999608E-07
          0                40           2             7    6     1      -0.3815925639E-01       7    6    1        -0.2658004229E+01      0.2658023590E+01
                                                   Max.-Head-Change                         Max.-Flux-Residual
  Residual-Control   Outer-Iter.   Inner-Iter.     Column Row Layer    Maximum-Head-Change  Column Row Layer    Maximum-Flux-Residual          L2-NORM 
          0                41           2             7    6     1       0.3761507806E-01       7    6    1         0.2643447058E+01      0.2643465597E+01
          0                42           2             7    6     1       0.6104696367E-02       7    6    1         0.4287372285E+00      0.4288461902E+00
          0                43           2             7    6     1       0.2463373275E-02       7    6    1         0.1729637366E+00      0.1730550138E+00
          0                44           2             7    6     1       0.8585339684E-03       7    6    1         0.6025964126E-01      0.6032324125E-01
          0                45           2             7    6     1       0.2992700968E-03       7    6    1         0.2099793355E-01      0.2103591514E-01
          0                46           2             7    6     1       0.1043392289E-03       7    6    1         0.7318213474E-02      0.7338448137E-02
          0                47           1             7    6     1       0.3638398728E-04       7    6    1         0.2551009392E-02      0.2561036846E-02
          0                48           1             7    6     1       0.1268969673E-04       7    6    1         0.8894006864E-03      0.8941768497E-03
          0                49           1             7    6     1       0.4426601091E-05       7    6    1         0.3101424550E-03      0.3124827609E-03

    ------------------------------------------------
       NWT REQUIRED           49 OUTER ITERATIONS 
       AND A TOTAL OF         73 INNER ITERATIONS.
    ------------------------------------------------

 NO OUTPUT CONTROL FOR STRESS PERIOD   20   TIME STEP   23
 
 SOLVING FOR HEAD 
                                                   Max.-Head-Change                         Max.-Flux-Residual
  Residual-Control   Outer-Iter.   Inner-Iter.     Column Row Layer    Maximum-Head-Change  Column Row Layer    Maximum-Flux-Residual          L2-NORM 
          0                 1           2             6   13     1      -0.1238747919E-01       6   13    1        -0.6581845904E+00      0.1775908967E+01
          0                 2           2             2   13     1       0.2046150076E-02       2   13    1         0.1162591873E+00      0.3921582283E+00
          0                 3           2             7    6     1      -0.5421376224E-01       7    6    1        -0.2987894790E+01      0.2989970906E+01
          0                 4           2             7    6     1       0.5491889718E-01       7    6    1         0.3054613109E+01      0.3055361059E+01
     PET DIFF ERROR     6    7   -0.2154707539E-08    0.5999999608E-07
     PET DIFF ERROR     6    8   -0.2154707587E-08    0.5999999608E-07
          0                 5           2             7    6     1      -0.3723456978E-01       7    6    1        -0.2090097026E+01      0.2090265422E+01
          0                 6           2             7    6     1       0.3517373587E-01       7    6    1         0.1992335394E+01      0.1992387573E+01
     PET DIFF ERROR     6    7   -0.2967017059E-08    0.5999999608E-07
     PET DIFF ERROR     6    8   -0.2967017077E-08    0.5999999608E-07
          0                 7           2             7    6     1      -0.3334688058E-01       7    6    1        -0.1906150385E+01      0.1906182854E+01
          0                 8           2             7    6     1       0.3263743436E-01       7    6    1         0.1882607467E+01      0.1882643274E+01
     PET DIFF ERROR     6    7   -0.3162661860E-08    0.5999999608E-07
     PET DIFF ERROR     6    8   -0.3162661783E-08    0.5999999608E-07
          0                 9           2             7    6     1      -0.3004296789E-01       7    6    1        -0.1748781634E+01      0.1748807006E+01
          0                10           2             7    6     1       0.2939717455E-01       7    6    1         0.1726757667E+01      0.1726791710E+01
     PET DIFF ERROR     6    7   -0.1705164537E-08    0.5999999608E-07
     PET DIFF ERROR     6    8   -0.1705164363E-08    0.5999999608E-07
                                                   Max.-Head-Change                         Max.-Flux-Residual
  Residual-Control   Outer-Iter.   Inner-Iter.     Column Row Layer    Maximum-Head-Change  Column Row Layer    Maximum-Flux-Residual          L2-NORM 
          0                11           2             7    6     1      -0.2675069932E-01       7    6    1        -0.1585633861E+01      0.1585655907E+01
          0                12           2             7    6     1       0.2621164834E-01       7    6    1         0.1567785929E+01      0.1567807439E+01
          0                13           2             7    6     1       0.2230272669E-02       7    6    1         0.1332016567E+00      0.1334058246E+00
          0                14           2             7    6     1       0.8784869418E-03       7    6    1         0.5247640438E-01      0.5254722802E-01
          0                15           2             7    6     1       0.2033111053E-03       7    6    1         0.1213700914E-01      0.1216983224E-01
          0                16           1             7    6     1       0.5053035787E-04       7    6    1         0.3015043394E-02      0.3028061700E-02
          0                17           1             7    6     1       0.1182336867E-04       7    6    1         0.7050349107E-03      0.7099564431E-03
          0                18           1             7    6     1       0.2823245807E-05       7    6    1         0.1682579039E-03      0.1699304342E-03

    ------------------------------------------------
       NWT REQUIRED           18 OUTER ITERATIONS 
       AND A TOTAL OF         33 INNER ITERATIONS.
    ------------------------------------------------

 NO OUTPUT CONTROL FOR STRESS PERIOD   20   TIME STEP   24
 
 SOLVING FOR HEAD 
                                                   Max.-Head-Change                         Max.-Flux-Residual
  Residual-Control   Outer-Iter.   Inner-Iter.     Column Row Layer    Maximum-Head-Change  Column Row Layer    Maximum-Flux-Residual          L2-NORM 
          0                 1           2             6   13     1      -0.1212816287E-01       6   13    1        -0.6443406152E+00      0.1750185292E+01
          0                 2           2             2   13     1       0.2523748876E-02       2   13    1         0.1434442415E+00      0.4210316754E+00
          0                 3           2             7    6     1      -0.7239342966E-01       7    6    1        -0.3989746851E+01      0.3991322098E+01
          0                 4           2             7    6     1       0.7455372866E-01       7    6    1         0.4146709980E+01      0.4151935247E+01
          0                 5           2             7    6     1      -0.1661066170E-02       7    6    1        -0.9375815276E-01      0.9971518441E-01
          0                 6           2             7    6     1      -0.3033672852E-03       7    6    1        -0.1710663235E-01      0.1976366216E-01
          0                 7           1             7    6     1      -0.5547761219E-04       7    6    1        -0.3125425521E-02      0.5210838263E-02
          0                 8           1             1    4     1       0.1461285676E-04       7    6    1        -0.5717568454E-03      0.1938213335E-02
          0                 9           1             1    4     1       0.6565429894E-05       1    4    1         0.1705558048E-03      0.8341102343E-03

    ------------------------------------------------
       NWT REQUIRED            9 OUTER ITERATIONS 
       AND A TOTAL OF         15 INNER ITERATIONS.
    ------------------------------------------------

 NO OUTPUT CONTROL FOR STRESS PERIOD   20   TIME STEP   25
 
 SOLVING FOR HEAD 
                                                   Max.-Head-Change                         Max.-Flux-Residual
  Residual-Control   Outer-Iter.   Inner-Iter.     Column Row Layer    Maximum-Head-Change  Column Row Layer    Maximum-Flux-Residual          L2-NORM 
          0                 1           2             6   13     1      -0.1187016159E-01       6   13    1        -0.6305585314E+00      0.1723873895E+01
          0                 2           2             2   13     1       0.2494708058E-02       2   13    1         0.1417981919E+00      0.4183547801E+00
          0                 3           2             7    6     1      -0.7247978197E-01       7    6    1        -0.3994507983E+01      0.3996077275E+01
          0                 4           2             7    6     1       0.7464846392E-01       7    6    1         0.4151981598E+01      0.4152309975E+01
          0                 5           2             7    6     1      -0.2031435806E-02       7    6    1        -0.1145450414E+00      0.1184424617E+00
          0                 6           2             7    6     1      -0.2524336670E-03       7    6    1        -0.1424520033E-01      0.1731624443E-01
          0                 7           2             7    6     1      -0.1203381278E-03       7    6    1        -0.6765407197E-02      0.7969581415E-02
          0                 8           2             7    6     1       0.1608600339E-03       7    6    1         0.9109173474E-02      0.9336248740E-02
          0                 9           1             7    6     1       0.2638285770E-04       7    6    1         0.1492671798E-02      0.1740058964E-02
          0                10           1             7    6     1      -0.2346720062E-04       7    6    1        -0.1341687784E-02      0.1442599803E-02
                                                   Max.-Head-Change                         Max.-Flux-Residual
  Residual-Control   Outer-Iter.   Inner-Iter.     Column Row Layer    Maximum-Head-Change  Column Row Layer    Maximum-Flux-Residual          L2-NORM 
          0                11           1             7    6     1      -0.4746053747E-04       7    6    1        -0.2712352906E-02      0.2755959414E-02
          0                12           1             7    6     1      -0.7411144680E-04       7    6    1        -0.4235154745E-02      0.4275371177E-02
          0                13           2             7    6     1      -0.1193949166E-03       7    6    1        -0.6822820021E-02      0.6865772961E-02
          0                14           2             7    6     1       0.1579820953E-03       7    6    1         0.9112283861E-02      0.9173328432E-02
          0                15           1             7    6     1       0.1563597962E-04       7    6    1         0.9006982255E-03      0.1034132316E-02
          0                16           1             7    6     1      -0.4597644023E-04       7    6    1        -0.2676062253E-02      0.2739906012E-02
          0                17           1             7    6     1      -0.8614015384E-04       7    6    1        -0.5012829174E-02      0.5065474284E-02
          0                18           2             7    6     1       0.1309704761E-03       7    6    1         0.7692352512E-02      0.7750578776E-02
          0                19           1             7    6     1       0.1291704709E-04       7    6    1         0.7576884416E-03      0.9017762515E-03
          0                20           1             7    6     1      -0.3674797273E-04       7    6    1        -0.2178041011E-02      0.2249554123E-02
                                                   Max.-Head-Change                         Max.-Flux-Residual
  Residual-Control   Outer-Iter.   Inner-Iter.     Column Row Layer    Maximum-Head-Change  Column Row Layer    Maximum-Flux-Residual          L2-NORM 
          0                21           1             7    6     1      -0.6630738008E-04       7    6    1        -0.3929227821E-02      0.3986946668E-02
          0                22           2             7    6     1      -0.1023151316E-03       7    6    1        -0.6062686137E-02      0.6121616434E-02
          0                23           2             7    6     1       0.1085534524E-03       7    6    1         0.6492406230E-02      0.6585331926E-02
          0                24           1             7    6     1      -0.9378454666E-05       7    6    1        -0.5665855635E-03      0.8880572805E-03

    ------------------------------------------------
       NWT REQUIRED           24 OUTER ITERATIONS 
       AND A TOTAL OF         37 INNER ITERATIONS.
    ------------------------------------------------

 NO OUTPUT CONTROL FOR STRESS PERIOD   20   TIME STEP   26
 
 SOLVING FOR HEAD 
                                                   Max.-Head-Change                         Max.-Flux-Residual
  Residual-Control   Outer-Iter.   Inner-Iter.     Column Row Layer    Maximum-Head-Change  Column Row Layer    Maximum-Flux-Residual          L2-NORM 
          0                 1           2             6   13     1      -0.1163158905E-01       6   13    1        -0.6178393610E+00      0.1703805492E+01
          0                 2           2             1    2     1       0.1775458748E-02       6   13    1         0.6173897677E-01      0.3246185574E+00
          0                 3           2             1    4     1       0.7976085074E-03       1    2    1         0.2072226300E-01      0.1096779217E+00
          0                 4           2             1    4     1       0.3583624781E-03       1    4    1         0.9309406244E-02      0.4672465107E-01
          0                 5           2             1    4     1       0.1610105206E-03       1    4    1         0.4182679232E-02      0.2071490462E-01
          0                 6           1             1    4     1       0.7234106420E-04       1    4    1         0.1879256650E-02      0.9241930694E-02
          0                 7           1             1    4     1       0.3250232250E-04       1    4    1         0.8443383890E-03      0.4128717103E-02
          0                 8           1             1    4     1       0.1460302089E-04       1    4    1         0.3793550127E-03      0.1845384717E-02
          0                 9           1             1    4     1       0.6560996176E-05       1    4    1         0.1704409401E-03      0.8250890665E-03

    ------------------------------------------------
       NWT REQUIRED            9 OUTER ITERATIONS 
       AND A TOTAL OF         14 INNER ITERATIONS.
    ------------------------------------------------

 NO OUTPUT CONTROL FOR STRESS PERIOD   20   TIME STEP   27
 
 SOLVING FOR HEAD 
                                                   Max.-Head-Change                         Max.-Flux-Residual
  Residual-Control   Outer-Iter.   Inner-Iter.     Column Row Layer    Maximum-Head-Change  Column Row Layer    Maximum-Flux-Residual          L2-NORM 
          0                 1           2             6   13     1      -0.1138650700E-01       6   13    1        -0.6047495401E+00      0.1681197593E+01
          0                 2           2             2   13     1       0.2449521917E-02       2   13    1         0.1392364625E+00      0.4140738462E+00
     PET DIFF ERROR     6    7   -0.1311365998E-07    0.5999999608E-07
     PET DIFF ERROR     6    8   -0.1311365985E-07    0.5999999608E-07
          0                 3           2             7    6     1      -0.7247951599E-01       7    6    1        -0.3994497683E+01      0.3996060098E+01
          0                 4           2             7    6     1       0.7464614221E-01       7    6    1         0.4151857198E+01      0.4152311971E+01
          0                 5           2             7    6     1      -0.1981431993E-02       7    6    1        -0.1117387960E+00      0.1157525370E+00
          0                 6           2             7    6     1      -0.3618515307E-03       7    6    1        -0.2038639283E-01      0.2263650098E-01
          0                 7           2             7    6     1      -0.1513654182E-03       7    6    1        -0.8505886247E-02      0.9503134438E-02
          0                 8           1             7    6     1      -0.2537401928E-04       7    6    1        -0.1424763606E-02      0.2578459619E-02
          0                 9           1             2   13     1      -0.1044139709E-04       2   13    1        -0.6100528008E-03      0.1367617078E-02
          0                10           1             2   13     1      -0.1020631645E-04       2   13    1        -0.5963297954E-03      0.1122914422E-02
     PET DIFF ERROR     6    7   -0.5579699873E-09    0.5999999608E-07
     PET DIFF ERROR     6    8   -0.5579699914E-09    0.5999999608E-07
                                                   Max.-Head-Change                         Max.-Flux-Residual
  Residual-Control   Outer-Iter.   Inner-Iter.     Column Row Layer    Maximum-Head-Change  Column Row Layer    Maximum-Flux-Residual          L2-NORM 
          0                11           1             7    6     1      -0.1069228671E-04       7    6    1        -0.6110916308E-03      0.1238055040E-02
     PET DIFF ERROR     6    7   -0.5931904935E-09    0.5999999608E-07
     PET DIFF ERROR     6    8   -0.5931904980E-09    0.5999999608E-07
          0                12           1             7    6     1      -0.2725932621E-04       7    6    1        -0.1557816164E-02      0.1905224071E-02
     PET DIFF ERROR     6    7   -0.8104805366E-09    0.5999999608E-07
     PET DIFF ERROR     6    8   -0.8104805412E-09    0.5999999608E-07
          0                13           2             7    6     1      -0.5484935013E-01       7    6    1        -0.3134674265E+01      0.3134674482E+01
          0                14           2             7    6     1       0.5402604352E-01       7    6    1         0.3116250235E+01      0.3116307101E+01
     PET DIFF ERROR     6    7   -0.9960279730E-09    0.5999999608E-07
     PET DIFF ERROR     6    8   -0.9960279771E-09    0.5999999608E-07
          0                15           2             7    6     1      -0.5265121934E-01       7    6    1        -0.3064585239E+01      0.3064620443E+01
          0                16           2             7    6     1       0.5164773038E-01       7    6    1         0.3033560276E+01      0.3033597717E+01
     PET DIFF ERROR     6    7   -0.1430592766E-08    0.5999999608E-07
     PET DIFF ERROR     6    8   -0.1430592766E-08    0.5999999608E-07
          0                17           2             7    6     1      -0.5024602443E-01       7    6    1        -0.2978115831E+01      0.2978150821E+01
          0                18           2             7    6     1       0.4931262877E-01       7    6    1         0.2949347424E+01      0.2949381961E+01
     PET DIFF ERROR     6    7   -0.1851512255E-08    0.5999999608E-07
     PET DIFF ERROR     6    8   -0.1851512239E-08    0.5999999608E-07
          0                19           2             7    6     1      -0.4766504489E-01       7    6    1        -0.2876730904E+01      0.2876763301E+01
          0                20           2             7    6     1       0.4680394208E-01       7    6    1         0.2850370461E+01      0.2850403054E+01
     PET DIFF ERROR     6    7   -0.1269446765E-08    0.5999999608E-07
     PET DIFF ERROR     6    8   -0.1269446719E-08    0.5999999608E-07
                                                   Max.-Head-Change                         Max.-Flux-Residual
  Residual-Control   Outer-Iter.   Inner-Iter.     Column Row Layer    Maximum-Head-Change  Column Row Layer    Maximum-Flux-Residual          L2-NORM 
          0                21           2             7    6     1      -0.4492636436E-01       7    6    1        -0.2760857583E+01      0.2760887354E+01
          0                22           2             7    6     1       0.4414818052E-01       7    6    1         0.2737580303E+01      0.2737608525E+01
          0                23           2             7    6     1       0.3608372268E-02       7    6    1         0.2234332560E+00      0.2237537790E+00
          0                24           2             7    6     1       0.9652139258E-03       7    6    1         0.5973884981E-01      0.5989512888E-01
          0                25           2             7    6     1       0.2527662747E-03       7    6    1         0.1563633745E-01      0.1570313468E-01
          0                26           1             7    6     1       0.6622014302E-04       7    6    1         0.4094412733E-02      0.4120228246E-02
          0                27           1             7    6     1       0.1735536504E-04       7    6    1         0.1072565474E-02      0.1081903029E-02
          0                28           1             7    6     1       0.4550377838E-05       7    6    1         0.2810793196E-03      0.2843081348E-03

    ------------------------------------------------
       NWT REQUIRED           28 OUTER ITERATIONS 
       AND A TOTAL OF         48 INNER ITERATIONS.
    ------------------------------------------------

 NO OUTPUT CONTROL FOR STRESS PERIOD   20   TIME STEP   28
 
 SOLVING FOR HEAD 
     PET DIFF ERROR     6    7   -0.1742381438E-07    0.5999999608E-07
     PET DIFF ERROR     6    8   -0.1742381426E-07    0.5999999608E-07
                                                   Max.-Head-Change                         Max.-Flux-Residual
  Residual-Control   Outer-Iter.   Inner-Iter.     Column Row Layer    Maximum-Head-Change  Column Row Layer    Maximum-Flux-Residual          L2-NORM 
          0                 1           2             6   13     1      -0.1157046994E-01       6   13    1        -0.6146860927E+00      0.1721864786E+01
          0                 2           2             2   13     1       0.2109707596E-02       2   13    1         0.1198188105E+00      0.3899888817E+00
     PET DIFF ERROR     6    7   -0.1977340197E-07    0.5999999608E-07
     PET DIFF ERROR     6    8   -0.1977340184E-07    0.5999999608E-07
          0                 3           2             7    6     1      -0.5465731005E-01       7    6    1        -0.3012343148E+01      0.3014386442E+01
          0                 4           2             7    6     1       0.5540103434E-01       7    6    1         0.3081439334E+01      0.3082393587E+01
     PET DIFF ERROR     6    7   -0.3725646706E-08    0.5999999608E-07
     PET DIFF ERROR     6    8   -0.3725646670E-08    0.5999999608E-07
          0                 5           2             7    6     1      -0.3325646320E-01       7    6    1        -0.1866843962E+01      0.1867042603E+01
          0                 6           2             7    6     1       0.3091729199E-01       7    6    1         0.1751240047E+01      0.1751305432E+01
     PET DIFF ERROR     6    7   -0.1330731397E-08    0.5999999608E-07
     PET DIFF ERROR     6    8   -0.1330731334E-08    0.5999999608E-07
          0                 7           2             7    6     1      -0.2800148732E-01       7    6    1        -0.1600616334E+01      0.1600647657E+01
          0                 8           2             7    6     1       0.2732376765E-01       7    6    1         0.1576106240E+01      0.1576129718E+01
          0                 9           2             7    6     1       0.1750219441E-02       7    6    1         0.1007518281E+00      0.1010618691E+00
          0                10           2             7    6     1       0.5160977935E-03       7    6    1         0.2971122062E-01      0.2980064613E-01
                                                   Max.-Head-Change                         Max.-Flux-Residual
  Residual-Control   Outer-Iter.   Inner-Iter.     Column Row Layer    Maximum-Head-Change  Column Row Layer    Maximum-Flux-Residual          L2-NORM 
          0                11           2             7    6     1       0.1054113560E-03       7    6    1         0.6063866221E-02      0.6099797385E-02
          0                12           1             7    6     1       0.2295835747E-04       7    6    1         0.1319965256E-02      0.1332810686E-02
          0                13           1             7    6     1       0.4741610132E-05       7    6    1         0.2724154356E-03      0.2777974039E-03

    ------------------------------------------------
       NWT REQUIRED           13 OUTER ITERATIONS 
       AND A TOTAL OF         24 INNER ITERATIONS.
    ------------------------------------------------

 NO OUTPUT CONTROL FOR STRESS PERIOD   20   TIME STEP   29
 
 SOLVING FOR HEAD 
                                                   Max.-Head-Change                         Max.-Flux-Residual
  Residual-Control   Outer-Iter.   Inner-Iter.     Column Row Layer    Maximum-Head-Change  Column Row Layer    Maximum-Flux-Residual          L2-NORM 
          0                 1           2             6   13     1      -0.1209784407E-01       6   13    1        -0.6422484389E+00      0.1864499946E+01
          0                 2           2             2   13     1       0.2871704985E-02       2   13    1         0.1629505662E+00      0.4418508168E+00
          0                 3           2             7    6     1      -0.7243397728E-01       7    6    1        -0.3991981917E+01      0.3993544720E+01
          0                 4           2             7    6     1       0.7460229264E-01       7    6    1         0.4149425199E+01      0.4154653378E+01
          0                 5           2             7    6     1      -0.1668731137E-02       7    6    1        -0.9418859475E-01      0.1001122338E+00
          0                 6           2             7    6     1      -0.3047776475E-03       7    6    1        -0.1718575002E-01      0.1981105735E-01
          0                 7           1             7    6     1      -0.5573748256E-04       7    6    1        -0.3139989158E-02      0.5202480864E-02
          0                 8           1             1    4     1       0.1458760455E-04       7    6    1        -0.5744413120E-03      0.1929546716E-02
          0                 9           1             1    4     1       0.6554043589E-05       1    4    1         0.1702608872E-03      0.8296793679E-03

    ------------------------------------------------
       NWT REQUIRED            9 OUTER ITERATIONS 
       AND A TOTAL OF         15 INNER ITERATIONS.
    ------------------------------------------------

 NO OUTPUT CONTROL FOR STRESS PERIOD   20   TIME STEP   30



 STREAM LISTING     PERIOD     20   STEP       30

 LAYER ROW COL. STREAM  RCH.  FLOW INTO     FLOW TO   FLOW OUT OF   OVRLND.     DIRECT     STREAM       STREAM     STREAM     STREAM   STREAMBED  STREAMBED
                SEG.NO.  NO.  STRM. RCH.    AQUIFER    STRM. RCH.    RUNOFF     PRECIP       ET          HEAD       DEPTH      WIDTH   CONDCTNC.   GRADIENT

   1    1    1     1     1    1.4000E+01  1.7986E-01   1.3820E+01  0.000E+00  0.000E+00  0.000E+00  1.09404E+03  9.902E-01  1.002E+01  4.508E-02  1.330E+00
   1    2    2     1     2    1.3820E+01  2.7716E-01   1.3543E+01  0.000E+00  0.000E+00  0.000E+00  1.08904E+03  9.855E-01  9.935E+00  6.954E-02  1.328E+00
   1    3    3     1     3    1.3543E+01  2.3502E-01   1.3308E+01  0.000E+00  0.000E+00  0.000E+00  1.08340E+03  9.801E-01  9.842E+00  5.905E-02  1.327E+00
   1    3    4     1     4    1.3308E+01  2.1532E-01   1.3093E+01  0.000E+00  0.000E+00  0.000E+00  1.07838E+03  9.753E-01  9.759E+00  5.416E-02  1.325E+00
   1    4    5     2     1    1.1093E+01  2.9139E-01   1.0801E+01  0.000E+00  0.000E+00  0.000E+00  1.07267E+03  7.357E-01  1.200E+01  7.800E-02  1.245E+00
   1    5    6     2     2    1.0801E+01  2.2352E-01   1.0578E+01  0.000E+00  0.000E+00  0.000E+00  1.06723E+03  7.253E-01  1.200E+01  6.000E-02  1.242E+00
   1    6    6     2     3    1.0578E+01  2.2297E-01   1.0355E+01  0.000E+00  0.000E+00  0.000E+00  1.06251E+03  7.162E-01  1.200E+01  6.000E-02  1.239E+00
   1    7    6     2     4    1.0355E+01  2.2242E-01   1.0132E+01  0.000E+00  0.000E+00  0.000E+00  1.05778E+03  7.070E-01  1.200E+01  6.000E-02  1.236E+00
   1    8    6     2     5    1.0132E+01  2.2187E-01   9.9105E+00  0.000E+00  0.000E+00  0.000E+00  1.05306E+03  6.978E-01  1.200E+01  6.000E-02  1.233E+00
   1    3    5     3     1    2.0000E+00  2.8252E-01   1.7175E+00  0.000E+00  0.000E+00  0.000E+00  1.07555E+03  1.909E+00  9.636E+00  7.227E-02  1.955E+00
   1    3    6     3     2    1.7175E+00  2.4905E-01   1.4684E+00  0.000E+00  0.000E+00  0.000E+00  1.07264E+03  1.727E+00  8.909E+00  6.682E-02  1.864E+00
   1    3    7     3     3    1.4684E+00  1.9718E-01   1.2712E+00  0.000E+00  0.000E+00  0.000E+00  1.06987E+03  1.555E+00  8.218E+00  5.547E-02  1.777E+00
   1    4    8     3     4    1.2712E+00  2.2567E-01   1.0456E+00  0.000E+00  0.000E+00  0.000E+00  1.06682E+03  1.364E+00  7.455E+00  6.709E-02  1.682E+00
   1    5    8     3     5    1.0456E+00  1.5790E-01   8.8768E-01  0.000E+00  0.000E+00  0.000E+00  1.06362E+03  1.164E+00  6.655E+00  4.991E-02  1.582E+00
   1    6    8     3     6    8.8768E-01  5.5980E-02   8.3170E-01  0.000E+00  0.000E+00  0.000E+00  1.06158E+03  1.036E+00  6.145E+00  1.844E-02  1.518E+00
   1    5   10     4     1    1.0000E+01  9.0919E-02   9.9091E+00  0.000E+00  0.000E+00  0.000E+00  1.07836E+03  6.368E-01  1.000E+01  2.500E-02  1.212E+00
   1    5    9     4     2    9.9091E+00  1.8158E-01   9.7275E+00  0.000E+00  0.000E+00  0.000E+00  1.07154E+03  6.315E-01  1.000E+01  5.000E-02  1.211E+00
   1    6    8     4     3    9.7275E+00  1.2689E-01   9.6006E+00  0.000E+00  0.000E+00  0.000E+00  1.06381E+03  6.256E-01  1.000E+01  3.500E-02  1.209E+00
   1    6    8     5     1    1.0432E+01  2.2686E-01   1.0205E+01  0.000E+00  0.000E+00  0.000E+00  1.05868E+03  6.790E-01  1.542E+01  6.166E-02  1.226E+00
   1    7    7     5     2    1.0205E+01  2.7894E-01   9.9265E+00  0.000E+00  0.000E+00  0.000E+00  1.05417E+03  6.732E-01  1.519E+01  7.594E-02  1.224E+00
   1    8    7     5     3    9.9265E+00  1.9221E-01   9.7343E+00  0.000E+00  0.000E+00  0.000E+00  1.04992E+03  6.676E-01  1.497E+01  5.241E-02  1.223E+00
   1    8    6     5     4    9.7343E+00  1.3577E-01   9.5985E+00  0.000E+00  0.000E+00  0.000E+00  1.04691E+03  6.637E-01  1.482E+01  3.706E-02  1.221E+00
   1    9    6     6     1    1.4509E+01  2.3260E-01   1.4276E+01  0.000E+00  0.000E+00  0.000E+00  1.04360E+03  8.767E-01  1.200E+01  6.000E-02  1.292E+00
   1   10    7     6     2    1.4276E+01  2.3209E-01   1.4044E+01  0.000E+00  0.000E+00  0.000E+00  1.03905E+03  8.682E-01  1.200E+01  6.000E-02  1.289E+00
   1   11    7     6     3    1.4044E+01  2.3158E-01   1.3813E+01  0.000E+00  0.000E+00  0.000E+00  1.03450E+03  8.596E-01  1.200E+01  6.000E-02  1.287E+00
   1   12    7     6     4    1.3813E+01  2.3106E-01   1.3582E+01  0.000E+00  0.000E+00  0.000E+00  1.02994E+03  8.510E-01  1.200E+01  6.000E-02  1.284E+00
   1   13    7     6     5    1.3582E+01 -8.9274E-02   1.3671E+01  0.000E+00  0.000E+00  0.000E+00  1.02676E+03  8.484E-01  1.200E+01  2.400E-01 -1.240E-01
   1   14    9     7     1    1.5000E+02  1.1557E+00   1.4884E+02  0.000E+00  0.000E+00  0.000E+00  1.03987E+03  2.288E+00  5.530E+01  5.593E-01  6.887E-01
   1   13    8     7     2    1.4884E+02  1.5879E+00   1.4726E+02  0.000E+00  0.000E+00  0.000E+00  1.03478E+03  2.281E+00  5.526E+01  6.149E-01  8.608E-01
   1   13    7     7     3    1.4726E+02  1.4315E+00   1.4582E+02  0.000E+00  0.000E+00  0.000E+00  1.02969E+03  2.273E+00  5.523E+01  5.586E-01  8.542E-01
   1   13    6     8     1    1.5950E+02  7.9751E-01   1.5870E+02  0.000E+00  0.000E+00  0.000E+00  1.02475E+03  2.880E+00  4.176E+01  4.255E-01  6.247E-01
   1   13    5     8     2    1.5870E+02  7.3150E-02   1.5863E+02  0.000E+00  0.000E+00  0.000E+00  1.01850E+03  2.877E+00  4.171E+01  4.251E-01  5.736E-02
   1   13    4     8     3    1.5863E+02 -2.6506E+00   1.6128E+02  0.000E+00  0.000E+00  0.000E+00  1.01226E+03  2.886E+00  4.184E+01  4.264E+00 -2.072E-01
   1   13    3     8     4    1.6128E+02 -3.4642E+00   1.6474E+02  0.000E+00  0.000E+00  0.000E+00  1.00603E+03  2.906E+00  4.214E+01  4.294E+00 -2.689E-01
   1   13    2     8     5    1.6474E+02 -1.8603E+00   1.6660E+02  0.000E+00  0.000E+00  0.000E+00  9.99799E+02  2.924E+00  4.239E+01  4.320E+00 -1.435E-01
   1   13    1     8     6    1.6660E+02 -1.1803E+00   1.6778E+02  0.000E+00  0.000E+00  0.000E+00  9.94809E+02  2.934E+00  4.254E+01  2.601E+00 -1.513E-01
   1    6    8     9     1    5.0000E+00  0.0000E+00   5.0000E+00  0.000E+00  0.000E+00  0.000E+00  1.07886E+03  3.555E-01  4.000E+00  0.000E+00  1.119E+00





UNSATURATED ZONE PACKAGE VOLUMETRIC BUDGET FOR  TIME STEP    30 STRESS PERIOD   20
  ------------------------------------------------------------------------------



     CUMULATIVE VOLUMES      L**3       RATES FOR THIS TIME STEP      L**3/T
     ------------------                 ------------------------

           IN:                                      IN:
           ---                                      ---
        INFILTRATION =    30632498.0183          INFILTRATION =           5.0000

          OUT:                                     OUT:
          ----                                     ----
              UZF ET =   557511275.2952                UZF ET =           3.0000
        UZF RECHARGE =  1142049776.1333          UZF RECHARGE =          18.6065

            IN - OUT = -1668928553.4102              IN - OUT =         -16.6065

          STORAGE:                                 STORAGE:
          --------                                 --------
      STORAGE CHANGE = -1668902345.9855        STORAGE CHANGE =         -16.6065

 PERCENT DISCREPANCY IS DIFFERENCE BETWEEN IN-OUT MINUS CHANGE IN STORAGE
 DIVIDED BY THE AVERAGE OF IN AND OUT TIMES 100

 PERCENT DISCREPANCY =          -0.00     PERCENT DISCREPANCY =           0.00






1
  VOLUMETRIC BUDGET FOR ENTIRE MODEL AT END OF TIME STEP   30, STRESS PERIOD  20
  ------------------------------------------------------------------------------

     CUMULATIVE VOLUMES      L**3       RATES FOR THIS TIME STEP      L**3/T
     ------------------                 ------------------------

           IN:                                      IN:
           ---                                      ---
             STORAGE     =    56906748.0000               STORAGE     =           5.2448
       CONSTANT HEAD     =           0.0000         CONSTANT HEAD     =           0.0000
               WELLS     =           0.0000                 WELLS     =           0.0000
     HEAD DEP BOUNDS     =    13729926.0000       HEAD DEP BOUNDS     =           0.2735
      STREAM LEAKAGE     =   551855424.0000        STREAM LEAKAGE     =          10.4640
        UZF RECHARGE     =  1142049664.0000          UZF RECHARGE     =          18.6065
               GW ET     =           0.0000                 GW ET     =           0.0000
     SURFACE LEAKAGE     =           0.0000       SURFACE LEAKAGE     =           0.0000
    SUPPLEMENTARY WELLS  =           0.0000      SUPPLEMENTARY WELLS  =           0.0000

                TOTAL IN =  1764541696.0000                  TOTAL IN =          34.5888

          OUT:                                     OUT:
          ----                                     ----
             STORAGE     =  1060225600.0000               STORAGE     =          14.5660
       CONSTANT HEAD     =           0.0000         CONSTANT HEAD     =           0.0000
               WELLS     =           0.0000                 WELLS     =           0.0000
     HEAD DEP BOUNDS     =    14450419.0000       HEAD DEP BOUNDS     =           0.2760
      STREAM LEAKAGE     =   556358208.0000        STREAM LEAKAGE     =           9.2446
        UZF RECHARGE     =           0.0000          UZF RECHARGE     =           0.0000
               GW ET     =   133298928.0000                 GW ET     =          10.5000
     SURFACE LEAKAGE     =           0.0000       SURFACE LEAKAGE     =           0.0000
    SUPPLEMENTARY WELLS  =      324122.4062      SUPPLEMENTARY WELLS  =           0.0000

               TOTAL OUT =  1764657152.0000                 TOTAL OUT =          34.5866

                IN - OUT =     -115456.0000                  IN - OUT =       2.2697E-03

     PERCENT DISCREPANCY =          -0.01         PERCENT DISCREPANCY =           0.01






         TIME SUMMARY AT END OF TIME STEP   30 IN STRESS PERIOD   20
                    SECONDS     MINUTES      HOURS       DAYS        YEARS
                    -----------------------------------------------------------
   TIME STEP LENGTH  87600.      1460.0      24.333      1.0139     2.77588E-03
 STRESS PERIOD TIME 2.62800E+06  43800.      730.00      30.417     8.32763E-02
         TOTAL TIME 5.00184E+07 8.33640E+05  13894.      578.92      1.5850    
1
1
                            STRESS PERIOD NO.   21, LENGTH =   2628000.    
                            -----------------------------------------------

                              NUMBER OF TIME STEPS =    30

                               MULTIPLIER FOR DELT =     1.000

                            INITIAL TIME STEP SIZE =   87600.00    

 WELL NO.  LAYER   ROW   COL   STRESS RATE         
 --------------------------------------------------
      1      1      6      4       0.000    
      2      1      6      7       0.000    
      3      1      7      4       0.000    
      4      1      7      5       0.000    
      5      1      8      4       0.000    
      6      1      8      5       0.000    
      7      1      9      4       0.000    
      8      1      9      5       0.000    
      9      1     10      4       0.000    
     10      1     10      5       0.000    

     10 WELLS

 REUSING NON-PARAMETER GHB CELLS FROM LAST STRESS PERIOD

      2 GHB CELLS

 REUSING STREAM SEGMENT DATA FROM LAST STRESS PERIOD



            AREAL INFILTRATION RATE
 READING ON UNIT   19 WITH FORMAT: (10F4.0)            

            1           2           3           4           5           6           7           8           9          10
 ........................................................................................................................
   1    0.000       0.000       0.000       0.000       0.000       0.000       0.000       0.000       0.000       0.000    
   2    0.000       0.000       0.000       0.000       0.000       0.000       0.000       0.000       0.000       0.000    
   3    0.000       0.000       0.000       0.000       0.000       0.000       0.000       0.000       0.000       0.000    
   4    0.000       0.000       0.000       0.000       0.000       0.000       0.000       0.000       0.000       0.000    
   5    0.000       0.000       0.000       0.000       0.000       0.000       0.000       0.000       0.000       0.000    
   6    0.000       0.000       0.000       0.000       0.000       0.000       0.000       0.000       0.000       0.000    
   7    0.000       0.000       0.000       0.000       0.000       0.000       0.000       0.000       0.000       0.000    
   8    0.000       0.000       0.000       0.000       0.000       0.000       0.000       0.000       0.000       0.000    
   9    0.000       0.000       0.000       0.000       0.000       0.000       0.000       0.000       0.000       0.000    
  10    0.000       0.000       0.000       0.000       0.000       0.000       0.000       0.000       0.000       0.000    
  11    0.000       0.000       0.000       0.000       0.000       0.000       0.000       0.000       0.000       0.000    
  12    0.000       0.000       0.000       0.000       0.000       0.000       0.000       0.000       0.000       0.000    
  13    0.000       0.000       0.000       0.000       0.000       0.000       0.000       0.000       0.000       0.000    
  14    0.000       0.000       0.000       0.000       0.000       0.000       0.000       0.000       0.000       0.000    
  15    0.000       0.000       0.000       0.000       0.000       0.000       0.000       0.000       0.000       0.000    

                  ET RATE =  8.500000E-08

 USING ET EXTINCTION DEPTH FROM PREVIOUS STRESS PERIOD. CURRENT PERIOD IS:      21

 USING EXTINCTION WATER CONTENT FROM PREVIOUS STRESS PERIOD. CURRENT PERIOD IS:      21

 PROCESSING AGO STRESS PERIOD DATA

 READING AGO STRESS PERIOD DATA

 READING IRRIGATION STREAM

 READING IRRIGATION WELL

 READING SUPPLEMENTAL WEL

 END PROCESSING AGO STRESS PERIOD DATA OPTIONS
 
 SOLVING FOR HEAD 
                                                   Max.-Head-Change                         Max.-Flux-Residual
  Residual-Control   Outer-Iter.   Inner-Iter.     Column Row Layer    Maximum-Head-Change  Column Row Layer    Maximum-Flux-Residual          L2-NORM 
          0                 1           2             6   13     1      -0.2361055068E-01       6   13    1        -0.1254002069E+01      0.3241151926E+01
          0                 2           2             2   13     1       0.3872700080E-02       2   13    1         0.2195317056E+00      0.5640992132E+00
          0                 3           2             7    6     1      -0.7248085224E-01       7    6    1        -0.3994567607E+01      0.3996245624E+01
          0                 4           2             7    6     1       0.7465651164E-01       7    6    1         0.4152443339E+01      0.4153828153E+01
          0                 5           2             7    6     1      -0.1675055553E-02       7    6    1        -0.9454399173E-01      0.9947309274E-01
          0                 6           2             7    6     1      -0.3059400220E-03       7    6    1        -0.1725100990E-01      0.1983645374E-01
          0                 7           1             7    6     1      -0.5595137424E-04       7    6    1        -0.3151987476E-02      0.5203155160E-02
          0                 8           1             1    4     1       0.1458260033E-04       7    6    1        -0.5766498593E-03      0.1926735376E-02
          0                 9           1             1    4     1       0.6551783335E-05       1    4    1         0.1702024253E-03      0.8280622703E-03

    ------------------------------------------------
       NWT REQUIRED            9 OUTER ITERATIONS 
       AND A TOTAL OF         15 INNER ITERATIONS.
    ------------------------------------------------

 NO OUTPUT CONTROL FOR STRESS PERIOD   21   TIME STEP    1
 
 SOLVING FOR HEAD 
     PET DIFF ERROR     6    7   -0.2395489785E-07    0.8500000703E-07
     PET DIFF ERROR     6    8   -0.2395489772E-07    0.8500000703E-07
                                                   Max.-Head-Change                         Max.-Flux-Residual
  Residual-Control   Outer-Iter.   Inner-Iter.     Column Row Layer    Maximum-Head-Change  Column Row Layer    Maximum-Flux-Residual          L2-NORM 
          0                 1           2             6   13     1      -0.2311575635E-01       6   13    1        -0.1227626014E+01      0.3121651660E+01
          0                 2           2             2   13     1       0.3090072879E-02       2   13    1         0.1750783152E+00      0.5000337982E+00
          0                 3           2             7    6     1      -0.4827062802E-01       7    6    1        -0.2660380729E+01      0.2662797185E+01
          0                 4           2             7    6     1       0.4851381115E-01       7    6    1         0.2698373915E+01      0.2701297326E+01
          0                 5           2             1    4     1       0.1607333558E-03       7    5    1         0.7511508955E-02      0.2725084491E-01
          0                 6           1             1    4     1       0.7221603094E-04       1    4    1         0.1876019358E-02      0.9591677219E-02
          0                 7           1             1    4     1       0.3244591196E-04       1    4    1         0.8428779712E-03      0.4130778581E-02
          0                 8           1             1    4     1       0.1457756759E-04       1    4    1         0.3786961069E-03      0.1835678453E-02
          0                 9           1             1    4     1       0.6549510076E-05       1    4    1         0.1701436263E-03      0.8198592739E-03

    ------------------------------------------------
       NWT REQUIRED            9 OUTER ITERATIONS 
       AND A TOTAL OF         14 INNER ITERATIONS.
    ------------------------------------------------

 NO OUTPUT CONTROL FOR STRESS PERIOD   21   TIME STEP    2
 
 SOLVING FOR HEAD 
                                                   Max.-Head-Change                         Max.-Flux-Residual
  Residual-Control   Outer-Iter.   Inner-Iter.     Column Row Layer    Maximum-Head-Change  Column Row Layer    Maximum-Flux-Residual          L2-NORM 
          0                 1           2             6   13     1      -0.2263004450E-01       6   13    1        -0.1201736658E+01      0.3007351651E+01
          0                 2           2             2   13     1       0.3655603406E-02       2   13    1         0.2072260466E+00      0.5427062817E+00
          0                 3           2             7    6     1      -0.7248135836E-01       7    6    1        -0.3994600422E+01      0.3996250934E+01
          0                 4           2             7    6     1       0.7466342871E-01       7    6    1         0.4152832969E+01      0.4158206744E+01
          0                 5           2             7    6     1      -0.1680868371E-02       7    6    1        -0.9487040232E-01      0.1007790421E+00
          0                 6           2             7    6     1      -0.3070095405E-03       7    6    1        -0.1731101039E-01      0.1990435143E-01
          0                 7           1             7    6     1      -0.5614840333E-04       7    6    1        -0.3163031042E-02      0.5203065778E-02
          0                 8           1             1    4     1       0.1457196786E-04       7    6    1        -0.5786850161E-03      0.1923161630E-02
          0                 9           1             1    4     1       0.6546981954E-05       1    4    1         0.1700782118E-03      0.8260468285E-03

    ------------------------------------------------
       NWT REQUIRED            9 OUTER ITERATIONS 
       AND A TOTAL OF         15 INNER ITERATIONS.
    ------------------------------------------------

 NO OUTPUT CONTROL FOR STRESS PERIOD   21   TIME STEP    3
 
 SOLVING FOR HEAD 
                                                   Max.-Head-Change                         Max.-Flux-Residual
  Residual-Control   Outer-Iter.   Inner-Iter.     Column Row Layer    Maximum-Head-Change  Column Row Layer    Maximum-Flux-Residual          L2-NORM 
          0                 1           2             6   13     1      -0.2215568192E-01       6   13    1        -0.1176456657E+01      0.2901786362E+01
          0                 2           2             2   13     1       0.3554762731E-02       2   13    1         0.2015106731E+00      0.5329945209E+00
          0                 3           2             7    6     1      -0.7248158365E-01       7    6    1        -0.3994615274E+01      0.3996254688E+01
          0                 4           2             7    6     1       0.7466655388E-01       7    6    1         0.4153009233E+01      0.4158440136E+01
          0                 5           2             7    6     1      -0.1683509383E-02       7    6    1        -0.9501870947E-01      0.1009296683E+00
          0                 6           2             7    6     1      -0.3074840729E-03       7    6    1        -0.1733763224E-01      0.1992434254E-01
          0                 7           1             7    6     1      -0.5623582275E-04       7    6    1        -0.3167930955E-02      0.5203093803E-02
          0                 8           1             1    4     1       0.1456688935E-04       7    6    1        -0.5795880004E-03      0.1921706413E-02
          0                 9           1             1    4     1       0.6544688185E-05       1    4    1         0.1700188819E-03      0.8252089626E-03

    ------------------------------------------------
       NWT REQUIRED            9 OUTER ITERATIONS 
       AND A TOTAL OF         15 INNER ITERATIONS.
    ------------------------------------------------

 NO OUTPUT CONTROL FOR STRESS PERIOD   21   TIME STEP    4
 
 SOLVING FOR HEAD 
                                                   Max.-Head-Change                         Max.-Flux-Residual
  Residual-Control   Outer-Iter.   Inner-Iter.     Column Row Layer    Maximum-Head-Change  Column Row Layer    Maximum-Flux-Residual          L2-NORM 
          0                 1           2             6   13     1      -0.2169306124E-01       6   13    1        -0.1151806792E+01      0.2804441142E+01
          0                 2           2             2   13     1       0.3461126831E-02       2   13    1         0.1962046001E+00      0.5239873064E+00
          0                 3           2             7    6     1      -0.7248186916E-01       7    6    1        -0.3994632339E+01      0.3996261943E+01
          0                 4           2             7    6     1       0.7467029470E-01       7    6    1         0.4153219532E+01      0.4154840516E+01
          0                 5           2             7    6     1      -0.1686664379E-02       7    6    1        -0.9519556215E-01      0.1001364640E+00
          0                 6           2             7    6     1      -0.3080622294E-03       7    6    1        -0.1736992773E-01      0.1992349025E-01
          0                 7           1             7    6     1      -0.5634044472E-04       7    6    1        -0.3173758001E-02      0.5202401626E-02
          0                 8           1             1    4     1       0.1456123859E-04       7    6    1        -0.5806434567E-03      0.1919933375E-02
          0                 9           1             1    4     1       0.6542136802E-05       1    4    1         0.1699528695E-03      0.8242374155E-03

    ------------------------------------------------
       NWT REQUIRED            9 OUTER ITERATIONS 
       AND A TOTAL OF         15 INNER ITERATIONS.
    ------------------------------------------------

 NO OUTPUT CONTROL FOR STRESS PERIOD   21   TIME STEP    5
 
 SOLVING FOR HEAD 
                                                   Max.-Head-Change                         Max.-Flux-Residual
  Residual-Control   Outer-Iter.   Inner-Iter.     Column Row Layer    Maximum-Head-Change  Column Row Layer    Maximum-Flux-Residual          L2-NORM 
          0                 1           2             6   13     1      -0.2124569770E-01       6   13    1        -0.1127976774E+01      0.2718948882E+01
          0                 2           2             2   13     1       0.2940425547E-02       2   13    1         0.1666381794E+00      0.4824022666E+00
          0                 3           2             7    6     1      -0.5696369157E-01       7    6    1        -0.3139448782E+01      0.3141470001E+01
          0                 4           2             7    6     1       0.5791473939E-01       7    6    1         0.3221267507E+01      0.3225784978E+01
          0                 5           2             7    6     1      -0.6767782864E-03       7    6    1        -0.3839857188E-01      0.4843662019E-01
          0                 6           2             7    6     1      -0.1226832255E-03       7    6    1        -0.6953306393E-02      0.1186459700E-01
          0                 7           1             1    4     1       0.3239835009E-04       7    6    1        -0.1260986132E-02      0.4304340924E-02
          0                 8           1             1    4     1       0.1455608856E-04       1    4    1         0.3781404726E-03      0.1842752692E-02
          0                 9           1             1    4     1       0.6539809269E-05       1    4    1         0.1698926948E-03      0.8175731155E-03

    ------------------------------------------------
       NWT REQUIRED            9 OUTER ITERATIONS 
       AND A TOTAL OF         15 INNER ITERATIONS.
    ------------------------------------------------

 NO OUTPUT CONTROL FOR STRESS PERIOD   21   TIME STEP    6
 
 SOLVING FOR HEAD 
                                                   Max.-Head-Change                         Max.-Flux-Residual
  Residual-Control   Outer-Iter.   Inner-Iter.     Column Row Layer    Maximum-Head-Change  Column Row Layer    Maximum-Flux-Residual          L2-NORM 
          0                 1           2             6   13     1      -0.2080539747E-01       6   13    1        -0.1104522212E+01      0.2635874551E+01
          0                 2           2             2   13     1       0.3299146654E-02       2   13    1         0.1870288267E+00      0.5083344558E+00
          0                 3           2             7    6     1      -0.7248233108E-01       7    6    1        -0.3994662298E+01      0.3996275027E+01
          0                 4           2             7    6     1       0.7467734661E-01       7    6    1         0.4153616630E+01      0.4159195734E+01
          0                 5           2             7    6     1      -0.1692618340E-02       7    6    1        -0.9552988322E-01      0.1014373745E+00
          0                 6           2             7    6     1      -0.3091287024E-03       7    6    1        -0.1742975447E-01      0.1999491273E-01
          0                 7           1             7    6     1      -0.5653131869E-04       7    6    1        -0.3184455787E-02      0.5204908907E-02
          0                 8           1             1    4     1       0.1455037427E-04       7    6    1        -0.5825575590E-03      0.1917745151E-02
          0                 9           1             1    4     1       0.6537228873E-05       1    4    1         0.1698259404E-03      0.8228383952E-03

    ------------------------------------------------
       NWT REQUIRED            9 OUTER ITERATIONS 
       AND A TOTAL OF         15 INNER ITERATIONS.
    ------------------------------------------------

 NO OUTPUT CONTROL FOR STRESS PERIOD   21   TIME STEP    7
 
 SOLVING FOR HEAD 
                                                   Max.-Head-Change                         Max.-Flux-Residual
  Residual-Control   Outer-Iter.   Inner-Iter.     Column Row Layer    Maximum-Head-Change  Column Row Layer    Maximum-Flux-Residual          L2-NORM 
          0                 1           2             6   13     1      -0.2037578049E-01       6   13    1        -0.1081639386E+01      0.2559012375E+01
          0                 2           2             2   13     1       0.3223743652E-02       2   13    1         0.1827566072E+00      0.5028426218E+00
          0                 3           2             7    6     1      -0.7248252380E-01       7    6    1        -0.3994675302E+01      0.3996281119E+01
          0                 4           2             7    6     1       0.7468052194E-01       7    6    1         0.4153795641E+01      0.4156165247E+01
          0                 5           2             7    6     1      -0.1695302953E-02       7    6    1        -0.9568063700E-01      0.1007766805E+00
          0                 6           2             7    6     1      -0.3096070766E-03       7    6    1        -0.1745659148E-01      0.1999384337E-01
          0                 7           1             7    6     1      -0.5661660358E-04       7    6    1        -0.3189235829E-02      0.5203675458E-02
          0                 8           1             1    4     1       0.1454515870E-04       7    6    1        -0.5834093408E-03      0.1915883324E-02
          0                 9           1             1    4     1       0.6534871827E-05       1    4    1         0.1697650070E-03      0.8218541481E-03

    ------------------------------------------------
       NWT REQUIRED            9 OUTER ITERATIONS 
       AND A TOTAL OF         15 INNER ITERATIONS.
    ------------------------------------------------

 NO OUTPUT CONTROL FOR STRESS PERIOD   21   TIME STEP    8
 
 SOLVING FOR HEAD 
     PET DIFF ERROR     6    7   -0.9501060834E-08    0.8500000703E-07
     PET DIFF ERROR     6    8   -0.9501060769E-08    0.8500000703E-07
                                                   Max.-Head-Change                         Max.-Flux-Residual
  Residual-Control   Outer-Iter.   Inner-Iter.     Column Row Layer    Maximum-Head-Change  Column Row Layer    Maximum-Flux-Residual          L2-NORM 
          0                 1           2             6   13     1      -0.1995607818E-01       6   13    1        -0.1059430772E+01      0.2488873112E+01
          0                 2           2             2   13     1       0.2935777093E-02       2   13    1         0.1664099685E+00      0.4796686093E+00
          0                 3           2             7    6     1      -0.6471864059E-01       7    6    1        -0.3566819878E+01      0.3568592504E+01
          0                 4           2             7    6     1       0.6629872222E-01       7    6    1         0.3687596779E+01      0.3692734020E+01
          0                 5           2             7    6     1      -0.1191059626E-02       7    6    1        -0.6732136229E-01      0.7445396362E-01
          0                 6           2             7    6     1      -0.2170516358E-03       7    6    1        -0.1225578917E-01      0.1562041436E-01
          0                 7           1             7    6     1      -0.3960760685E-04       7    6    1        -0.2234295547E-02      0.4675443491E-02
          0                 8           1             1    4     1       0.1453936963E-04       4   13    1        -0.4090973753E-03      0.1912702895E-02
          0                 9           1             4   13     1       0.6873460520E-05       4   13    1         0.4241159950E-03      0.9211392762E-03

    ------------------------------------------------
       NWT REQUIRED            9 OUTER ITERATIONS 
       AND A TOTAL OF         15 INNER ITERATIONS.
    ------------------------------------------------

 NO OUTPUT CONTROL FOR STRESS PERIOD   21   TIME STEP    9
 
 SOLVING FOR HEAD 
                                                   Max.-Head-Change                         Max.-Flux-Residual
  Residual-Control   Outer-Iter.   Inner-Iter.     Column Row Layer    Maximum-Head-Change  Column Row Layer    Maximum-Flux-Residual          L2-NORM 
          0                 1           2             6   13     1      -0.1953896263E-01       6   13    1        -0.1037449524E+01      0.2416785051E+01
          0                 2           2             2   13     1       0.3093129374E-02       2   13    1         0.1753580604E+00      0.4894629116E+00
          0                 3           2             7    6     1      -0.7248286839E-01       7    6    1        -0.3994699018E+01      0.3996290403E+01
          0                 4           2             7    6     1       0.7468638651E-01       7    6    1         0.4154126617E+01      0.4158701427E+01
          0                 5           2             7    6     1      -0.1700269171E-02       7    6    1        -0.9595952002E-01      0.1015851767E+00
          0                 6           2             7    6     1      -0.3104892353E-03       7    6    1        -0.1750608106E-01      0.2004435261E-01
          0                 7           1             7    6     1      -0.5677335936E-04       7    6    1        -0.3198021405E-02      0.5204079605E-02
          0                 8           1             1    4     1       0.1453408454E-04       7    6    1        -0.5849694380E-03      0.1913218778E-02
          0                 9           1             1    4     1       0.6529867605E-05       1    4    1         0.1696356153E-03      0.8202965142E-03

    ------------------------------------------------
       NWT REQUIRED            9 OUTER ITERATIONS 
       AND A TOTAL OF         15 INNER ITERATIONS.
    ------------------------------------------------

 NO OUTPUT CONTROL FOR STRESS PERIOD   21   TIME STEP   10
 
 SOLVING FOR HEAD 
                                                   Max.-Head-Change                         Max.-Flux-Residual
  Residual-Control   Outer-Iter.   Inner-Iter.     Column Row Layer    Maximum-Head-Change  Column Row Layer    Maximum-Flux-Residual          L2-NORM 
          0                 1           2             6   13     1      -0.1912782988E-01       6   13    1        -0.1015833079E+01      0.2347326966E+01
          0                 2           2             2   13     1       0.3033862810E-02       2   13    1         0.1720013629E+00      0.4828400127E+00
          0                 3           2             7    6     1      -0.7248302271E-01       7    6    1        -0.3994709869E+01      0.3996294288E+01
          0                 4           2             7    6     1       0.7468910605E-01       7    6    1         0.4154280265E+01      0.4157519838E+01
          0                 5           2             7    6     1      -0.1702575872E-02       7    6    1        -0.9608905910E-01      0.1013733702E+00
          0                 6           2             7    6     1      -0.3108976308E-03       7    6    1        -0.1752899276E-01      0.2005205923E-01
          0                 7           1             7    6     1      -0.5684567620E-04       7    6    1        -0.3202074535E-02      0.5203015461E-02
          0                 8           1             1    4     1       0.1452822043E-04       7    6    1        -0.5856864639E-03      0.1911494929E-02
          0                 9           1             1    4     1       0.6527218679E-05       1    4    1         0.1695671016E-03      0.8193752699E-03

    ------------------------------------------------
       NWT REQUIRED            9 OUTER ITERATIONS 
       AND A TOTAL OF         15 INNER ITERATIONS.
    ------------------------------------------------

 NO OUTPUT CONTROL FOR STRESS PERIOD   21   TIME STEP   11
 
 SOLVING FOR HEAD 
                                                   Max.-Head-Change                         Max.-Flux-Residual
  Residual-Control   Outer-Iter.   Inner-Iter.     Column Row Layer    Maximum-Head-Change  Column Row Layer    Maximum-Flux-Residual          L2-NORM 
          0                 1           2             6   13     1      -0.1872229201E-01       6   13    1        -0.9945364357E+00      0.2281454531E+01
          0                 2           2             2   13     1       0.2980758234E-02       2   13    1         0.1689942788E+00      0.4766949817E+00
          0                 3           2             7    6     1      -0.7248316457E-01       7    6    1        -0.3994720019E+01      0.3996297551E+01
          0                 4           2             7    6     1       0.7469167443E-01       7    6    1         0.4154425514E+01      0.4160196242E+01
          0                 5           2             7    6     1      -0.1704757376E-02       7    6    1        -0.9621157645E-01      0.1021151347E+00
          0                 6           2             7    6     1      -0.3112827819E-03       7    6    1        -0.1755060372E-01      0.2008353690E-01
          0                 7           1             7    6     1      -0.5691366556E-04       7    6    1        -0.3205885945E-02      0.5203155678E-02
          0                 8           1             1    4     1       0.1452286230E-04       7    6    1        -0.5863585156E-03      0.1910210342E-02
          0                 9           1             1    4     1       0.6524796854E-05       1    4    1         0.1695045009E-03      0.8186344116E-03

    ------------------------------------------------
       NWT REQUIRED            9 OUTER ITERATIONS 
       AND A TOTAL OF         15 INNER ITERATIONS.
    ------------------------------------------------

 NO OUTPUT CONTROL FOR STRESS PERIOD   21   TIME STEP   12
 
 SOLVING FOR HEAD 
                                                   Max.-Head-Change                         Max.-Flux-Residual
  Residual-Control   Outer-Iter.   Inner-Iter.     Column Row Layer    Maximum-Head-Change  Column Row Layer    Maximum-Flux-Residual          L2-NORM 
          0                 1           2             6   13     1      -0.1831853203E-01       6   13    1        -0.9733427550E+00      0.2216589584E+01
          0                 2           2             2   13     1       0.2927971443E-02       2   13    1         0.1660048226E+00      0.4706449158E+00
          0                 3           2             7    6     1      -0.7248328857E-01       7    6    1        -0.3994729165E+01      0.3996306631E+01
          0                 4           2             7    6     1       0.7469403064E-01       7    6    1         0.4154558945E+01      0.4156912915E+01
          0                 5           2             7    6     1      -0.1706762800E-02       7    6    1        -0.9632420328E-01      0.1034112728E+00
          0                 6           2             7    6     1      -0.3116354538E-03       7    6    1        -0.1757038995E-01      0.2014839675E-01
          0                 7           1             7    6     1      -0.5697566480E-04       7    6    1        -0.3209360871E-02      0.5202478043E-02
          0                 8           1             1    4     1       0.1451692992E-04       7    6    1        -0.5869684890E-03      0.1908221005E-02
          0                 9           1             1    4     1       0.6522116914E-05       1    4    1         0.1694351889E-03      0.8176419467E-03

    ------------------------------------------------
       NWT REQUIRED            9 OUTER ITERATIONS 
       AND A TOTAL OF         15 INNER ITERATIONS.
    ------------------------------------------------

 NO OUTPUT CONTROL FOR STRESS PERIOD   21   TIME STEP   13
 
 SOLVING FOR HEAD 
     PET DIFF ERROR     6    7   -0.1033670744E-07    0.8500000703E-07
     PET DIFF ERROR     6    8   -0.1033670739E-07    0.8500000703E-07
                                                   Max.-Head-Change                         Max.-Flux-Residual
  Residual-Control   Outer-Iter.   Inner-Iter.     Column Row Layer    Maximum-Head-Change  Column Row Layer    Maximum-Flux-Residual          L2-NORM 
          0                 1           2             6   13     1      -0.1792223178E-01       6   13    1        -0.9525337514E+00      0.2157690945E+01
          0                 2           2             2   13     1       0.2635400137E-02       2   13    1         0.1493983402E+00      0.4472494962E+00
          0                 3           2             7    6     1      -0.6394202760E-01       7    6    1        -0.3524030709E+01      0.3525787621E+01
          0                 4           2             7    6     1       0.6547212193E-01       7    6    1         0.3641630984E+01      0.3646762784E+01
          0                 5           2             7    6     1      -0.1151285793E-02       7    6    1        -0.6508317906E-01      0.7950281063E-01
          0                 6           2             7    6     1      -0.2097056389E-03       7    6    1        -0.1184269910E-01      0.1552787874E-01
          0                 7           1             7    6     1      -0.3824968764E-04       7    6    1        -0.2157988960E-02      0.4627064807E-02
          0                 8           1             1    4     1       0.1451148725E-04       7    6    1        -0.3937559916E-03      0.1856370766E-02
          0                 9           1             1    4     1       0.6519655571E-05       1    4    1         0.1693715854E-03      0.8129043616E-03

    ------------------------------------------------
       NWT REQUIRED            9 OUTER ITERATIONS 
       AND A TOTAL OF         15 INNER ITERATIONS.
    ------------------------------------------------

 NO OUTPUT CONTROL FOR STRESS PERIOD   21   TIME STEP   14
 
 SOLVING FOR HEAD 
                                                   Max.-Head-Change                         Max.-Flux-Residual
  Residual-Control   Outer-Iter.   Inner-Iter.     Column Row Layer    Maximum-Head-Change  Column Row Layer    Maximum-Flux-Residual          L2-NORM 
          0                 1           2             6   13     1      -0.1752677924E-01       6   13    1        -0.9317581823E+00      0.2100042179E+01
          0                 2           2             2   13     1       0.2837923867E-02       2   13    1         0.1609078016E+00      0.4599470265E+00
          0                 3           2             7    6     1      -0.7248361045E-01       7    6    1        -0.3994750141E+01      0.3996331265E+01
          0                 4           2             7    6     1       0.7469891408E-01       7    6    1         0.4154835141E+01      0.4159641273E+01
          0                 5           2             7    6     1      -0.1710930538E-02       7    6    1        -0.9655794100E-01      0.1057822015E+00
          0                 6           2             7    6     1      -0.3123722270E-03       7    6    1        -0.1761158228E-01      0.2025974735E-01
          0                 7           1             7    6     1      -0.5710624477E-04       7    6    1        -0.3216642033E-02      0.5203456804E-02
          0                 8           1             1    4     1       0.1450547909E-04       7    6    1        -0.5882585538E-03      0.1905431337E-02
          0                 9           1             1    4     1       0.6516941866E-05       1    4    1         0.1693013902E-03      0.8160462301E-03

    ------------------------------------------------
       NWT REQUIRED            9 OUTER ITERATIONS 
       AND A TOTAL OF         15 INNER ITERATIONS.
    ------------------------------------------------

 NO OUTPUT CONTROL FOR STRESS PERIOD   21   TIME STEP   15
 
 SOLVING FOR HEAD 
                                                   Max.-Head-Change                         Max.-Flux-Residual
  Residual-Control   Outer-Iter.   Inner-Iter.     Column Row Layer    Maximum-Head-Change  Column Row Layer    Maximum-Flux-Residual          L2-NORM 
          0                 1           2             6   13     1      -0.1713677090E-01       6   13    1        -0.9112475977E+00      0.2046952263E+01
          0                 2           2             2   13     1       0.2796364755E-02       2   13    1         0.1585547810E+00      0.4550071809E+00
          0                 3           2             7    6     1      -0.7248372481E-01       7    6    1        -0.3994758751E+01      0.3996341929E+01
          0                 4           2             7    6     1       0.7470117360E-01       7    6    1         0.4154963172E+01      0.4157831598E+01
          0                 5           2             7    6     1      -0.1712855570E-02       7    6    1        -0.9666605473E-01      0.1031586803E+00
          0                 6           2             7    6     1      -0.3127096706E-03       7    6    1        -0.1763051411E-01      0.2017237955E-01
          0                 7           1             7    6     1      -0.5716536090E-04       7    6    1        -0.3219955278E-02      0.5199252230E-02
          0                 8           1             1    4     1       0.1449943040E-04       7    6    1        -0.5888379560E-03      0.1903418642E-02
          0                 9           1             1    4     1       0.6514209904E-05       1    4    1         0.1692307347E-03      0.8152497786E-03

    ------------------------------------------------
       NWT REQUIRED            9 OUTER ITERATIONS 
       AND A TOTAL OF         15 INNER ITERATIONS.
    ------------------------------------------------

 NO OUTPUT CONTROL FOR STRESS PERIOD   21   TIME STEP   16
 
 SOLVING FOR HEAD 
     PET DIFF ERROR     6    7   -0.1455324130E-08    0.8500000703E-07
     PET DIFF ERROR     6    8   -0.1455324047E-08    0.8500000703E-07
                                                   Max.-Head-Change                         Max.-Flux-Residual
  Residual-Control   Outer-Iter.   Inner-Iter.     Column Row Layer    Maximum-Head-Change  Column Row Layer    Maximum-Flux-Residual          L2-NORM 
          0                 1           2             6   13     1      -0.1675375696E-01       6   13    1        -0.8910786526E+00      0.1999124313E+01
          0                 2           2             2   13     1       0.2729090448E-02       2   13    1         0.1547435896E+00      0.4483448720E+00
          0                 3           2             7    6     1      -0.7140911347E-01       7    6    1        -0.3935540296E+01      0.3937145637E+01
          0                 4           2             7    6     1       0.7354266538E-01       7    6    1         0.4090528301E+01      0.4096250413E+01
          0                 5           2             7    6     1      -0.1644517706E-02       7    6    1        -0.9282252194E-01      0.1024780280E+00
          0                 6           2             7    6     1      -0.3001573315E-03       7    6    1        -0.1692515932E-01      0.1966797990E-01
          0                 7           1             7    6     1      -0.5485702792E-04       7    6    1        -0.3090353367E-02      0.5120781554E-02
          0                 8           1             1    4     1       0.1449387643E-04       7    6    1        -0.5649972475E-03      0.1894974044E-02
          0                 9           1             1    4     1       0.6511698539E-05       1    4    1         0.1691658307E-03      0.8138253828E-03

    ------------------------------------------------
       NWT REQUIRED            9 OUTER ITERATIONS 
       AND A TOTAL OF         15 INNER ITERATIONS.
    ------------------------------------------------

 NO OUTPUT CONTROL FOR STRESS PERIOD   21   TIME STEP   17
 
 SOLVING FOR HEAD 
                                                   Max.-Head-Change                         Max.-Flux-Residual
  Residual-Control   Outer-Iter.   Inner-Iter.     Column Row Layer    Maximum-Head-Change  Column Row Layer    Maximum-Flux-Residual          L2-NORM 
          0                 1           2             6   13     1      -0.1637318687E-01       6   13    1        -0.8710173822E+00      0.1952730685E+01
          0                 2           2             2   13     1       0.2723190007E-02       2   13    1         0.1544152367E+00      0.4461731063E+00
          0                 3           2             7    6     1      -0.7248392615E-01       7    6    1        -0.3994774374E+01      0.3996362563E+01
          0                 4           2             7    6     1       0.7470534367E-01       7    6    1         0.4155199832E+01      0.4158464599E+01
          0                 5           2             7    6     1      -0.1716417275E-02       7    6    1        -0.9686608951E-01      0.1031978664E+00
          0                 6           2             7    6     1      -0.3133311074E-03       7    6    1        -0.1766537804E-01      0.2019146512E-01
          0                 7           1             7    6     1      -0.5727368247E-04       7    6    1        -0.3226025789E-02      0.5196880331E-02
          0                 8           1             1    4     1       0.1448774421E-04       7    6    1        -0.5898936383E-03      0.1900179951E-02
          0                 9           1             1    4     1       0.6508928559E-05       1    4    1         0.1690941900E-03      0.8133329761E-03

    ------------------------------------------------
       NWT REQUIRED            9 OUTER ITERATIONS 
       AND A TOTAL OF         15 INNER ITERATIONS.
    ------------------------------------------------

 NO OUTPUT CONTROL FOR STRESS PERIOD   21   TIME STEP   18
 
 SOLVING FOR HEAD 
                                                   Max.-Head-Change                         Max.-Flux-Residual
  Residual-Control   Outer-Iter.   Inner-Iter.     Column Row Layer    Maximum-Head-Change  Column Row Layer    Maximum-Flux-Residual          L2-NORM 
          0                 1           2             6   13     1      -0.1600097194E-01       6   13    1        -0.8513676300E+00      0.1911100039E+01
          0                 2           2             2   13     1       0.2691889621E-02       2   13    1         0.1526442227E+00      0.4422065897E+00
          0                 3           2             7    6     1      -0.7248401645E-01       7    6    1        -0.3994781546E+01      0.3996371341E+01
          0                 4           2             7    6     1       0.7470727963E-01       7    6    1         0.4155309878E+01      0.4161153617E+01
          0                 5           2             7    6     1      -0.1718075310E-02       7    6    1        -0.9695921017E-01      0.1056031253E+00
          0                 6           2             7    6     1      -0.3136190245E-03       7    6    1        -0.1768153061E-01      0.2029758651E-01
          0                 7           1             7    6     1      -0.5732360631E-04       7    6    1        -0.3228823517E-02      0.5198563298E-02
          0                 8           1             1    4     1       0.1448159498E-04       7    6    1        -0.5903773549E-03      0.1898828722E-02
          0                 9           1             1    4     1       0.6506151826E-05       1    4    1         0.1690223556E-03      0.8125766409E-03

    ------------------------------------------------
       NWT REQUIRED            9 OUTER ITERATIONS 
       AND A TOTAL OF         15 INNER ITERATIONS.
    ------------------------------------------------

 NO OUTPUT CONTROL FOR STRESS PERIOD   21   TIME STEP   19
 
 SOLVING FOR HEAD 
                                                   Max.-Head-Change                         Max.-Flux-Residual
  Residual-Control   Outer-Iter.   Inner-Iter.     Column Row Layer    Maximum-Head-Change  Column Row Layer    Maximum-Flux-Residual          L2-NORM 
          0                 1           2             6   13     1      -0.1563252007E-01       6   13    1        -0.8318962878E+00      0.1871322563E+01
          0                 2           2             2   13     1       0.2659263130E-02       2   13    1         0.1507975248E+00      0.4382943284E+00
          0                 3           2             7    6     1      -0.7248409853E-01       7    6    1        -0.3994788302E+01      0.3996379808E+01
          0                 4           2             7    6     1       0.7470913207E-01       7    6    1         0.4155415261E+01      0.4157886013E+01
          0                 5           2             7    6     1      -0.1719663569E-02       7    6    1        -0.9704841758E-01      0.1023816098E+00
          0                 6           2             7    6     1      -0.3138939355E-03       7    6    1        -0.1769695467E-01      0.2017146658E-01
          0                 7           1             7    6     1      -0.5737110213E-04       7    6    1        -0.3231485424E-02      0.5191844441E-02
          0                 8           1             1    4     1       0.1447592321E-04       7    6    1        -0.5908357048E-03      0.1896272655E-02
          0                 9           1             1    4     1       0.6503587187E-05       1    4    1         0.1689560667E-03      0.8113547442E-03

    ------------------------------------------------
       NWT REQUIRED            9 OUTER ITERATIONS 
       AND A TOTAL OF         15 INNER ITERATIONS.
    ------------------------------------------------

 NO OUTPUT CONTROL FOR STRESS PERIOD   21   TIME STEP   20
 
 SOLVING FOR HEAD 
     PET DIFF ERROR     6    7   -0.1048457295E-07    0.8500000703E-07
     PET DIFF ERROR     6    8   -0.1048457290E-07    0.8500000703E-07
                                                   Max.-Head-Change                         Max.-Flux-Residual
  Residual-Control   Outer-Iter.   Inner-Iter.     Column Row Layer    Maximum-Head-Change  Column Row Layer    Maximum-Flux-Residual          L2-NORM 
          0                 1           2             6   13     1      -0.1527409101E-01       6   13    1        -0.8129249092E+00      0.1836386715E+01
          0                 2           2             2   13     1       0.2377916370E-02       2   13    1         0.1348289133E+00      0.4171432436E+00
          0                 3           2             7    6     1      -0.6380338622E-01       7    6    1        -0.3516404116E+01      0.3518168988E+01
          0                 4           2             7    6     1       0.6533609235E-01       7    6    1         0.3634079340E+01      0.3639351780E+01
          0                 5           2             7    6     1      -0.1154491968E-02       7    6    1        -0.6526241154E-01      0.7560383446E-01
          0                 6           2             7    6     1      -0.2102203864E-03       7    6    1        -0.1187141137E-01      0.1539569313E-01
          0                 7           1             7    6     1      -0.3833091811E-04       7    6    1        -0.2162508044E-02      0.4602104916E-02
          0                 8           1             1    4     1       0.1446967419E-04       7    6    1        -0.3944502439E-03      0.1843136507E-02
          0                 9           1             1    4     1       0.6500764684E-05       1    4    1         0.1688830693E-03      0.8065698561E-03

    ------------------------------------------------
       NWT REQUIRED            9 OUTER ITERATIONS 
       AND A TOTAL OF         15 INNER ITERATIONS.
    ------------------------------------------------

 NO OUTPUT CONTROL FOR STRESS PERIOD   21   TIME STEP   21
 
 SOLVING FOR HEAD 
                                                   Max.-Head-Change                         Max.-Flux-Residual
  Residual-Control   Outer-Iter.   Inner-Iter.     Column Row Layer    Maximum-Head-Change  Column Row Layer    Maximum-Flux-Residual          L2-NORM 
          0                 1           2             6   13     1      -0.1491940229E-01       6   13    1        -0.7941164227E+00      0.1802051603E+01
          0                 2           2             2   13     1       0.2605177719E-02       2   13    1         0.1477377132E+00      0.4315411875E+00
          0                 3           2             7    6     1      -0.7248425175E-01       7    6    1        -0.3994801117E+01      0.3996395679E+01
          0                 4           2             7    6     1       0.7471268041E-01       7    6    1         0.4155617338E+01      0.4160358864E+01
          0                 5           2             7    6     1      -0.1722711645E-02       7    6    1        -0.9721961561E-01      0.1040237614E+00
          0                 6           2             7    6     1      -0.3144197299E-03       7    6    1        -0.1772645300E-01      0.2024859066E-01
          0                 7           1             7    6     1      -0.5746160153E-04       7    6    1        -0.3236556880E-02      0.5188475977E-02
          0                 8           1             1    4     1       0.1446339415E-04       7    6    1        -0.5917052720E-03      0.1891775278E-02
          0                 9           1             1    4     1       0.6497928175E-05       1    4    1         0.1688096987E-03      0.8090537729E-03

    ------------------------------------------------
       NWT REQUIRED            9 OUTER ITERATIONS 
       AND A TOTAL OF         15 INNER ITERATIONS.
    ------------------------------------------------

 NO OUTPUT CONTROL FOR STRESS PERIOD   21   TIME STEP   22
 
 SOLVING FOR HEAD 
                                                   Max.-Head-Change                         Max.-Flux-Residual
  Residual-Control   Outer-Iter.   Inner-Iter.     Column Row Layer    Maximum-Head-Change  Column Row Layer    Maximum-Flux-Residual          L2-NORM 
          0                 1           2             6   13     1      -0.1457333300E-01       6   13    1        -0.7757378331E+00      0.1770798138E+01
          0                 2           2             2   13     1       0.2579943877E-02       2   13    1         0.1463101232E+00      0.4285346972E+00
          0                 3           2             7    6     1      -0.7248439322E-01       7    6    1        -0.3994809763E+01      0.3996408175E+01
          0                 4           2             7    6     1       0.7471452900E-01       7    6    1         0.4155722332E+01      0.4159062240E+01
          0                 5           2             7    6     1      -0.1724311789E-02       7    6    1        -0.9730916710E-01      0.1029051269E+00
          0                 6           2             7    6     1      -0.3146993681E-03       7    6    1        -0.1774199978E-01      0.2020826224E-01
          0                 7           1             7    6     1      -0.5751075027E-04       7    6    1        -0.3239274344E-02      0.5186355444E-02
          0                 8           1             1    4     1       0.1445707735E-04       7    6    1        -0.5921828060E-03      0.1890482514E-02
          0                 9           1             1    4     1       0.6495075158E-05       1    4    1         0.1687358983E-03      0.8083336246E-03

    ------------------------------------------------
       NWT REQUIRED            9 OUTER ITERATIONS 
       AND A TOTAL OF         15 INNER ITERATIONS.
    ------------------------------------------------

 NO OUTPUT CONTROL FOR STRESS PERIOD   21   TIME STEP   23
 
 SOLVING FOR HEAD 
                                                   Max.-Head-Change                         Max.-Flux-Residual
  Residual-Control   Outer-Iter.   Inner-Iter.     Column Row Layer    Maximum-Head-Change  Column Row Layer    Maximum-Flux-Residual          L2-NORM 
          0                 1           2             6   13     1      -0.1423641539E-01       6   13    1        -0.7578504014E+00      0.1742328729E+01
          0                 2           2             2   13     1       0.2558482832E-02       2   13    1         0.1450969016E+00      0.4256777131E+00
          0                 3           2             7    6     1      -0.7248447501E-01       7    6    1        -0.3994816490E+01      0.3996414605E+01
          0                 4           2             7    6     1       0.7471638757E-01       7    6    1         0.4155828048E+01      0.4161767037E+01
          0                 5           2             7    6     1      -0.1725905516E-02       7    6    1        -0.9739868792E-01      0.1048751351E+00
          0                 6           2             7    6     1      -0.3149746016E-03       7    6    1        -0.1775744508E-01      0.2030018272E-01
          0                 7           1             7    6     1      -0.5755817478E-04       7    6    1        -0.3241933057E-02      0.5187141915E-02
          0                 8           1             1    4     1       0.1445073228E-04       7    6    1        -0.5926392241E-03      0.1888726497E-02
          0                 9           1             1    4     1       0.6492210386E-05       1    4    1         0.1686617838E-03      0.8073992240E-03

    ------------------------------------------------
       NWT REQUIRED            9 OUTER ITERATIONS 
       AND A TOTAL OF         15 INNER ITERATIONS.
    ------------------------------------------------

 NO OUTPUT CONTROL FOR STRESS PERIOD   21   TIME STEP   24
 
 SOLVING FOR HEAD 
                                                   Max.-Head-Change                         Max.-Flux-Residual
  Residual-Control   Outer-Iter.   Inner-Iter.     Column Row Layer    Maximum-Head-Change  Column Row Layer    Maximum-Flux-Residual          L2-NORM 
          0                 1           2             6   13     1      -0.1390446479E-01       6   13    1        -0.7402162318E+00      0.1714549730E+01
          0                 2           2             2   13     1       0.2535017759E-02       2   13    1         0.1437698013E+00      0.4227892976E+00
          0                 3           2             7    6     1      -0.7248454406E-01       7    6    1        -0.3994822498E+01      0.3996420955E+01
          0                 4           2             7    6     1       0.7471809580E-01       7    6    1         0.4155925388E+01      0.4158393286E+01
          0                 5           2             7    6     1      -0.1727374505E-02       7    6    1        -0.9748119919E-01      0.1024858894E+00
          0                 6           2             7    6     1      -0.3152268156E-03       7    6    1        -0.1777159572E-01      0.2020010105E-01
          0                 7           1             7    6     1      -0.5760135554E-04       7    6    1        -0.3244353015E-02      0.5180671657E-02
          0                 8           1             1    4     1       0.1444486467E-04       7    6    1        -0.5930516222E-03      0.1886214893E-02
          0                 9           1             1    4     1       0.6489557709E-05       1    4    1         0.1685932162E-03      0.8062145007E-03

    ------------------------------------------------
       NWT REQUIRED            9 OUTER ITERATIONS 
       AND A TOTAL OF         15 INNER ITERATIONS.
    ------------------------------------------------

 NO OUTPUT CONTROL FOR STRESS PERIOD   21   TIME STEP   25
 
 SOLVING FOR HEAD 
     PET DIFF ERROR     6    7   -0.1063670747E-07    0.8500000703E-07
     PET DIFF ERROR     6    8   -0.1063670743E-07    0.8500000703E-07
                                                   Max.-Head-Change                         Max.-Flux-Residual
  Residual-Control   Outer-Iter.   Inner-Iter.     Column Row Layer    Maximum-Head-Change  Column Row Layer    Maximum-Flux-Residual          L2-NORM 
          0                 1           2             6   13     1      -0.1358360443E-01       6   13    1        -0.7231483094E+00      0.1690308456E+01
          0                 2           2             2   13     1       0.2256381471E-02       2   13    1         0.1279554905E+00      0.4025850162E+00
          0                 3           2             7    6     1      -0.6365985765E-01       7    6    1        -0.3508502666E+01      0.3510272270E+01
          0                 4           2             7    6     1       0.6518938316E-01       7    6    1         0.3625929294E+01      0.3631266896E+01
          0                 5           2             7    6     1      -0.1152595307E-02       7    6    1        -0.6515481891E-01      0.7429001979E-01
          0                 6           2             7    6     1      -0.2098196899E-03       7    6    1        -0.1184864372E-01      0.1530235535E-01
          0                 7           1             7    6     1      -0.3824805663E-04       7    6    1        -0.2157797538E-02      0.4577665871E-02
          0                 8           1             1    4     1       0.1443843807E-04       7    6    1        -0.3934910851E-03      0.1831815390E-02
          0                 9           1             1    4     1       0.6486655170E-05       1    4    1         0.1685181302E-03      0.8013201565E-03

    ------------------------------------------------
       NWT REQUIRED            9 OUTER ITERATIONS 
       AND A TOTAL OF         15 INNER ITERATIONS.
    ------------------------------------------------

 NO OUTPUT CONTROL FOR STRESS PERIOD   21   TIME STEP   26
 
 SOLVING FOR HEAD 
                                                   Max.-Head-Change                         Max.-Flux-Residual
  Residual-Control   Outer-Iter.   Inner-Iter.     Column Row Layer    Maximum-Head-Change  Column Row Layer    Maximum-Flux-Residual          L2-NORM 
          0                 1           2             6   13     1      -0.1326660625E-01       6   13    1        -0.7062818920E+00      0.1666005435E+01
          0                 2           2             2   13     1       0.2497446501E-02       2   13    1         0.1416452029E+00      0.4178370251E+00
          0                 3           2             7    6     1      -0.7248467068E-01       7    6    1        -0.3994833874E+01      0.3996432156E+01
          0                 4           2             7    6     1       0.7472138539E-01       7    6    1         0.4156113008E+01      0.4161073441E+01
          0                 5           2             7    6     1      -0.1730207609E-02       7    6    1        -0.9764033304E-01      0.1039473282E+00
          0                 6           2             7    6     1      -0.3157115028E-03       7    6    1        -0.1779878883E-01      0.2027139102E-01
          0                 7           1             7    6     1      -0.5768400335E-04       7    6    1        -0.3248984503E-02      0.5179298486E-02
          0                 8           1             1    4     1       0.1443197195E-04       7    6    1        -0.5938372863E-03      0.1883071977E-02
          0                 9           1             1    4     1       0.6483736124E-05       1    4    1         0.1684426048E-03      0.8045673657E-03

    ------------------------------------------------
       NWT REQUIRED            9 OUTER ITERATIONS 
       AND A TOTAL OF         15 INNER ITERATIONS.
    ------------------------------------------------

 NO OUTPUT CONTROL FOR STRESS PERIOD   21   TIME STEP   27
 
 SOLVING FOR HEAD 
                                                   Max.-Head-Change                         Max.-Flux-Residual
  Residual-Control   Outer-Iter.   Inner-Iter.     Column Row Layer    Maximum-Head-Change  Column Row Layer    Maximum-Flux-Residual          L2-NORM 
          0                 1           2             6   13     1      -0.1295817030E-01       6   13    1        -0.6898572556E+00      0.1643436624E+01
          0                 2           2             2   13     1       0.2479355303E-02       2   13    1         0.1406238931E+00      0.4154957425E+00
          0                 3           2             7    6     1      -0.7248472306E-01       7    6    1        -0.3994838951E+01      0.3996436826E+01
          0                 4           2             7    6     1       0.7472290280E-01       7    6    1         0.4156199728E+01      0.4159258822E+01
          0                 5           2             7    6     1      -0.1731518609E-02       7    6    1        -0.9771397499E-01      0.1028645927E+00
          0                 6           2             7    6     1      -0.3159341975E-03       7    6    1        -0.1781128342E-01      0.2022662279E-01
          0                 7           1             7    6     1      -0.5772166587E-04       7    6    1        -0.3251095109E-02      0.5174822333E-02
          0                 8           1             1    4     1       0.1442547707E-04       7    6    1        -0.5941919071E-03      0.1880892880E-02
          0                 9           1             1    4     1       0.6480803822E-05       1    4    1         0.1683667298E-03      0.8035329928E-03

    ------------------------------------------------
       NWT REQUIRED            9 OUTER ITERATIONS 
       AND A TOTAL OF         15 INNER ITERATIONS.
    ------------------------------------------------

 NO OUTPUT CONTROL FOR STRESS PERIOD   21   TIME STEP   28
 
 SOLVING FOR HEAD 
     PET DIFF ERROR     6    7   -0.1064904501E-08    0.8500000703E-07
     PET DIFF ERROR     6    8   -0.1064904430E-08    0.8500000703E-07
                                                   Max.-Head-Change                         Max.-Flux-Residual
  Residual-Control   Outer-Iter.   Inner-Iter.     Column Row Layer    Maximum-Head-Change  Column Row Layer    Maximum-Flux-Residual          L2-NORM 
          0                 1           2             6   13     1      -0.1265944901E-01       6   13    1        -0.6739355570E+00      0.1623010505E+01
          0                 2           2             2   13     1       0.2441998327E-02       2   13    1         0.1385069819E+00      0.4118537151E+00
          0                 3           2             7    6     1      -0.7170203684E-01       7    6    1        -0.3951707788E+01      0.3953317718E+01
          0                 4           2             7    6     1       0.7387911638E-01       7    6    1         0.4109269614E+01      0.4115223211E+01
          0                 5           2             7    6     1      -0.1681739860E-02       7    6    1        -0.9491425923E-01      0.1018964031E+00
          0                 6           2             7    6     1      -0.3067907098E-03       7    6    1        -0.1729748124E-01      0.1984557170E-01
          0                 7           1             7    6     1      -0.5604020296E-04       7    6    1        -0.3156688579E-02      0.5115315868E-02
          0                 8           1             1    4     1       0.1441893641E-04       7    6    1        -0.5768255469E-03      0.1873758441E-02
          0                 9           1             1    4     1       0.6477850261E-05       1    4    1         0.1682903204E-03      0.8022571626E-03

    ------------------------------------------------
       NWT REQUIRED            9 OUTER ITERATIONS 
       AND A TOTAL OF         15 INNER ITERATIONS.
    ------------------------------------------------

 NO OUTPUT CONTROL FOR STRESS PERIOD   21   TIME STEP   29
 
 SOLVING FOR HEAD 
                                                   Max.-Head-Change                         Max.-Flux-Residual
  Residual-Control   Outer-Iter.   Inner-Iter.     Column Row Layer    Maximum-Head-Change  Column Row Layer    Maximum-Flux-Residual          L2-NORM 
          0                 1           2             6   13     1      -0.1270664217E-01       6   13    1        -0.6762939685E+00      0.1644170755E+01
          0                 2           2             2   13     1       0.2583207559E-02       4   13    1         0.1464996049E+00      0.4195656265E+00
          0                 3           2             7    6     1      -0.7248508632E-01       7    6    1        -0.3994859620E+01      0.3996349046E+01
          0                 4           2             7    6     1       0.7472670582E-01       7    6    1         0.4156416605E+01      0.4159617317E+01
          0                 5           2             7    6     1      -0.1734832813E-02       7    6    1        -0.9789999635E-01      0.1030298973E+00
          0                 6           2             7    6     1      -0.3165068501E-03       7    6    1        -0.1784339073E-01      0.2024478351E-01
          0                 7           1             7    6     1      -0.5782040942E-04       7    6    1        -0.3256625364E-02      0.5170049461E-02
          0                 8           1             1    4     1       0.1441234874E-04       7    6    1        -0.5951420471E-03      0.1876629720E-02
          0                 9           1             1    4     1       0.6474874440E-05       1    4    1         0.1682133505E-03      0.8014143750E-03

    ------------------------------------------------
       NWT REQUIRED            9 OUTER ITERATIONS 
       AND A TOTAL OF         15 INNER ITERATIONS.
    ------------------------------------------------

 NO OUTPUT CONTROL FOR STRESS PERIOD   21   TIME STEP   30



 STREAM LISTING     PERIOD     21   STEP       30

 LAYER ROW COL. STREAM  RCH.  FLOW INTO     FLOW TO   FLOW OUT OF   OVRLND.     DIRECT     STREAM       STREAM     STREAM     STREAM   STREAMBED  STREAMBED
                SEG.NO.  NO.  STRM. RCH.    AQUIFER    STRM. RCH.    RUNOFF     PRECIP       ET          HEAD       DEPTH      WIDTH   CONDCTNC.   GRADIENT

   1    1    1     1     1    1.0292E+01  1.5099E-01   1.0141E+01  0.000E+00  0.000E+00  0.000E+00  1.09395E+03  9.056E-01  8.591E+00  3.866E-02  1.302E+00
   1    2    2     1     2    1.0141E+01  2.3238E-01   9.9089E+00  0.000E+00  0.000E+00  0.000E+00  1.08896E+03  9.007E-01  8.511E+00  5.957E-02  1.300E+00
   1    3    3     1     3    9.9089E+00  1.9655E-01   9.7123E+00  0.000E+00  0.000E+00  0.000E+00  1.08331E+03  8.943E-01  8.412E+00  5.047E-02  1.298E+00
   1    3    4     1     4    9.7123E+00  1.7964E-01   9.5327E+00  0.000E+00  0.000E+00  0.000E+00  1.07830E+03  8.886E-01  8.324E+00  4.620E-02  1.296E+00
   1    4    5     2     1    7.5327E+00  2.7935E-01   7.2533E+00  0.000E+00  0.000E+00  0.000E+00  1.07252E+03  5.813E-01  1.200E+01  7.800E-02  1.194E+00
   1    5    6     2     2    7.2533E+00  2.1418E-01   7.0391E+00  0.000E+00  0.000E+00  0.000E+00  1.06708E+03  5.696E-01  1.200E+01  6.000E-02  1.190E+00
   1    6    6     2     3    7.0391E+00  2.1356E-01   6.8256E+00  0.000E+00  0.000E+00  0.000E+00  1.06235E+03  5.593E-01  1.200E+01  6.000E-02  1.186E+00
   1    7    6     2     4    6.8256E+00  2.1294E-01   6.6127E+00  0.000E+00  0.000E+00  0.000E+00  1.05762E+03  5.489E-01  1.200E+01  6.000E-02  1.183E+00
   1    8    6     2     5    6.6127E+00  2.1231E-01   6.4003E+00  0.000E+00  0.000E+00  0.000E+00  1.05290E+03  5.385E-01  1.200E+01  6.000E-02  1.179E+00
   1    3    5     3     1    2.0000E+00  2.8252E-01   1.7175E+00  0.000E+00  0.000E+00  0.000E+00  1.07555E+03  1.909E+00  9.636E+00  7.227E-02  1.955E+00
   1    3    6     3     2    1.7175E+00  2.4905E-01   1.4684E+00  0.000E+00  0.000E+00  0.000E+00  1.07264E+03  1.727E+00  8.909E+00  6.682E-02  1.864E+00
   1    3    7     3     3    1.4684E+00  1.9718E-01   1.2712E+00  0.000E+00  0.000E+00  0.000E+00  1.06987E+03  1.555E+00  8.218E+00  5.547E-02  1.777E+00
   1    4    8     3     4    1.2712E+00  2.2567E-01   1.0456E+00  0.000E+00  0.000E+00  0.000E+00  1.06682E+03  1.364E+00  7.455E+00  6.709E-02  1.682E+00
   1    5    8     3     5    1.0456E+00  1.5790E-01   8.8768E-01  0.000E+00  0.000E+00  0.000E+00  1.06362E+03  1.164E+00  6.655E+00  4.991E-02  1.582E+00
   1    6    8     3     6    8.8768E-01  5.5980E-02   8.3170E-01  0.000E+00  0.000E+00  0.000E+00  1.06158E+03  1.036E+00  6.145E+00  1.844E-02  1.518E+00
   1    5   10     4     1    1.0000E+01  9.0919E-02   9.9091E+00  0.000E+00  0.000E+00  0.000E+00  1.07836E+03  6.368E-01  1.000E+01  2.500E-02  1.212E+00
   1    5    9     4     2    9.9091E+00  1.8158E-01   9.7275E+00  0.000E+00  0.000E+00  0.000E+00  1.07154E+03  6.315E-01  1.000E+01  5.000E-02  1.211E+00
   1    6    8     4     3    9.7275E+00  1.2689E-01   9.6006E+00  0.000E+00  0.000E+00  0.000E+00  1.06381E+03  6.256E-01  1.000E+01  3.500E-02  1.209E+00
   1    6    8     5     1    1.0432E+01  2.2686E-01   1.0205E+01  0.000E+00  0.000E+00  0.000E+00  1.05868E+03  6.790E-01  1.542E+01  6.166E-02  1.226E+00
   1    7    7     5     2    1.0205E+01  2.7894E-01   9.9265E+00  0.000E+00  0.000E+00  0.000E+00  1.05417E+03  6.732E-01  1.519E+01  7.594E-02  1.224E+00
   1    8    7     5     3    9.9265E+00  1.9221E-01   9.7343E+00  0.000E+00  0.000E+00  0.000E+00  1.04992E+03  6.676E-01  1.497E+01  5.241E-02  1.223E+00
   1    8    6     5     4    9.7343E+00  1.3577E-01   9.5985E+00  0.000E+00  0.000E+00  0.000E+00  1.04691E+03  6.637E-01  1.482E+01  3.706E-02  1.221E+00
   1    9    6     6     1    1.2459E+01  2.2798E-01   1.2231E+01  0.000E+00  0.000E+00  0.000E+00  1.04353E+03  7.996E-01  1.200E+01  6.000E-02  1.267E+00
   1   10    7     6     2    1.2231E+01  2.2744E-01   1.2004E+01  0.000E+00  0.000E+00  0.000E+00  1.03897E+03  7.907E-01  1.200E+01  6.000E-02  1.264E+00
   1   11    7     6     3    1.2004E+01  2.2691E-01   1.1777E+01  0.000E+00  0.000E+00  0.000E+00  1.03442E+03  7.818E-01  1.200E+01  6.000E-02  1.261E+00
   1   12    7     6     4    1.1777E+01  2.2637E-01   1.1550E+01  0.000E+00  0.000E+00  0.000E+00  1.02986E+03  7.728E-01  1.200E+01  6.000E-02  1.258E+00
   1   13    7     6     5    1.1550E+01 -3.3878E-02   1.1584E+01  0.000E+00  0.000E+00  0.000E+00  1.02668E+03  7.690E-01  1.200E+01  2.400E-01 -4.705E-02
   1   14    9     7     1    1.5000E+02  1.1592E+00   1.4884E+02  0.000E+00  0.000E+00  0.000E+00  1.03987E+03  2.288E+00  5.530E+01  5.593E-01  6.909E-01
   1   13    8     7     2    1.4884E+02  1.6399E+00   1.4720E+02  0.000E+00  0.000E+00  0.000E+00  1.03478E+03  2.281E+00  5.526E+01  6.149E-01  8.890E-01
   1   13    7     7     3    1.4720E+02  1.6042E+00   1.4560E+02  0.000E+00  0.000E+00  0.000E+00  1.02969E+03  2.272E+00  5.522E+01  5.585E-01  9.574E-01
   1   13    6     8     1    1.5718E+02  9.8781E-01   1.5619E+02  0.000E+00  0.000E+00  0.000E+00  1.02474E+03  2.863E+00  4.152E+01  4.231E-01  7.783E-01
   1   13    5     8     2    1.5619E+02  2.4500E-01   1.5595E+02  0.000E+00  0.000E+00  0.000E+00  1.01848E+03  2.859E+00  4.146E+01  4.225E-01  1.933E-01
   1   13    4     8     3    1.5595E+02 -1.7633E+00   1.5771E+02  0.000E+00  0.000E+00  0.000E+00  1.01224E+03  2.864E+00  4.153E+01  4.232E+00 -1.389E-01
   1   13    3     8     4    1.5771E+02 -2.6568E+00   1.6037E+02  0.000E+00  0.000E+00  0.000E+00  1.00600E+03  2.879E+00  4.175E+01  4.255E+00 -2.082E-01
   1   13    2     8     5    1.6037E+02 -9.6240E-01   1.6133E+02  0.000E+00  0.000E+00  0.000E+00  9.99767E+02  2.892E+00  4.193E+01  4.273E+00 -7.508E-02
   1   13    1     8     6    1.6133E+02 -4.3624E-01   1.6177E+02  0.000E+00  0.000E+00  0.000E+00  9.94771E+02  2.896E+00  4.200E+01  2.568E+00 -5.663E-02
   1    6    8     9     1    3.5397E+00  0.0000E+00   3.5397E+00  0.000E+00  0.000E+00  0.000E+00  1.07879E+03  2.890E-01  4.000E+00  0.000E+00  1.096E+00





UNSATURATED ZONE PACKAGE VOLUMETRIC BUDGET FOR  TIME STEP    30 STRESS PERIOD   21
  ------------------------------------------------------------------------------



     CUMULATIVE VOLUMES      L**3       RATES FOR THIS TIME STEP      L**3/T
     ------------------                 ------------------------

           IN:                                      IN:
           ---                                      ---
        INFILTRATION =    41699479.5026          INFILTRATION =           3.5397

          OUT:                                     OUT:
          ----                                     ----
              UZF ET =   568680276.2327                UZF ET =           4.2500
        UZF RECHARGE =  1189833967.7585          UZF RECHARGE =          17.8350

            IN - OUT = -1716814764.4885              IN - OUT =         -18.5453

          STORAGE:                                 STORAGE:
          --------                                 --------
      STORAGE CHANGE = -1716788556.9986        STORAGE CHANGE =         -18.5453

 PERCENT DISCREPANCY IS DIFFERENCE BETWEEN IN-OUT MINUS CHANGE IN STORAGE
 DIVIDED BY THE AVERAGE OF IN AND OUT TIMES 100

 PERCENT DISCREPANCY =          -0.00     PERCENT DISCREPANCY =           0.00






1
  VOLUMETRIC BUDGET FOR ENTIRE MODEL AT END OF TIME STEP   30, STRESS PERIOD  21
  ------------------------------------------------------------------------------

     CUMULATIVE VOLUMES      L**3       RATES FOR THIS TIME STEP      L**3/T
     ------------------                 ------------------------

           IN:                                      IN:
           ---                                      ---
             STORAGE     =    74258448.0000               STORAGE     =           5.0593
       CONSTANT HEAD     =           0.0000         CONSTANT HEAD     =           0.0000
               WELLS     =           0.0000                 WELLS     =           0.0000
     HEAD DEP BOUNDS     =    14448980.0000       HEAD DEP BOUNDS     =           0.2737
      STREAM LEAKAGE     =   580319296.0000        STREAM LEAKAGE     =          10.8382
        UZF RECHARGE     =  1189834112.0000          UZF RECHARGE     =          17.8350
               GW ET     =           0.0000                 GW ET     =           0.0000
     SURFACE LEAKAGE     =           0.0000       SURFACE LEAKAGE     =           0.0000
    SUPPLEMENTARY WELLS  =           0.0000      SUPPLEMENTARY WELLS  =           0.0000

                TOTAL IN =  1858860800.0000                  TOTAL IN =          34.0062

          OUT:                                     OUT:
          ----                                     ----
             STORAGE     =  1097532032.0000               STORAGE     =          13.6455
       CONSTANT HEAD     =           0.0000         CONSTANT HEAD     =           0.0000
               WELLS     =           0.0000                 WELLS     =           0.0000
     HEAD DEP BOUNDS     =    15155688.0000       HEAD DEP BOUNDS     =           0.2638
      STREAM LEAKAGE     =   574270016.0000        STREAM LEAKAGE     =           5.8526
        UZF RECHARGE     =           0.0000          UZF RECHARGE     =           0.0000
               GW ET     =   171688544.0000                 GW ET     =          14.2423
     SURFACE LEAKAGE     =           0.0000       SURFACE LEAKAGE     =           0.0000
    SUPPLEMENTARY WELLS  =      324122.4062      SUPPLEMENTARY WELLS  =           0.0000

               TOTAL OUT =  1858970496.0000                 TOTAL OUT =          34.0042

                IN - OUT =     -109696.0000                  IN - OUT =       2.0828E-03

     PERCENT DISCREPANCY =          -0.01         PERCENT DISCREPANCY =           0.01






         TIME SUMMARY AT END OF TIME STEP   30 IN STRESS PERIOD   21
                    SECONDS     MINUTES      HOURS       DAYS        YEARS
                    -----------------------------------------------------------
   TIME STEP LENGTH  87600.      1460.0      24.333      1.0139     2.77588E-03
 STRESS PERIOD TIME 2.62800E+06  43800.      730.00      30.417     8.32763E-02
         TOTAL TIME 5.26464E+07 8.77440E+05  14624.      609.33      1.6683    
1
1
                            STRESS PERIOD NO.   22, LENGTH =   2628000.    
                            -----------------------------------------------

                              NUMBER OF TIME STEPS =    30

                               MULTIPLIER FOR DELT =     1.000

                            INITIAL TIME STEP SIZE =   87600.00    

 WELL NO.  LAYER   ROW   COL   STRESS RATE         
 --------------------------------------------------
      1      1      6      4       0.000    
      2      1      6      7       0.000    
      3      1      7      4       0.000    
      4      1      7      5       0.000    
      5      1      8      4       0.000    
      6      1      8      5       0.000    
      7      1      9      4       0.000    
      8      1      9      5       0.000    
      9      1     10      4       0.000    
     10      1     10      5       0.000    

     10 WELLS

 REUSING NON-PARAMETER GHB CELLS FROM LAST STRESS PERIOD

      2 GHB CELLS

 REUSING STREAM SEGMENT DATA FROM LAST STRESS PERIOD



            AREAL INFILTRATION RATE
 READING ON UNIT   19 WITH FORMAT: (10F4.0)            

            1           2           3           4           5           6           7           8           9          10
 ........................................................................................................................
   1    0.000       0.000       0.000       0.000       0.000       0.000       0.000       0.000       0.000       0.000    
   2    0.000       0.000       0.000       0.000       0.000       0.000       0.000       0.000       0.000       0.000    
   3    0.000       0.000       0.000       0.000       0.000       0.000       0.000       0.000       0.000       0.000    
   4    0.000       0.000       0.000       0.000       0.000       0.000       0.000       0.000       0.000       0.000    
   5    0.000       0.000       0.000       0.000       0.000       0.000       0.000       0.000       0.000       0.000    
   6    0.000       0.000       0.000       0.000       0.000       0.000       0.000       0.000       0.000       0.000    
   7    0.000       0.000       0.000       0.000       0.000       0.000       0.000       0.000       0.000       0.000    
   8    0.000       0.000       0.000       0.000       0.000       0.000       0.000       0.000       0.000       0.000    
   9    0.000       0.000       0.000       0.000       0.000       0.000       0.000       0.000       0.000       0.000    
  10    0.000       0.000       0.000       0.000       0.000       0.000       0.000       0.000       0.000       0.000    
  11    0.000       0.000       0.000       0.000       0.000       0.000       0.000       0.000       0.000       0.000    
  12    0.000       0.000       0.000       0.000       0.000       0.000       0.000       0.000       0.000       0.000    
  13    0.000       0.000       0.000       0.000       0.000       0.000       0.000       0.000       0.000       0.000    
  14    0.000       0.000       0.000       0.000       0.000       0.000       0.000       0.000       0.000       0.000    
  15    0.000       0.000       0.000       0.000       0.000       0.000       0.000       0.000       0.000       0.000    

                  ET RATE =  2.500000E-08

 USING ET EXTINCTION DEPTH FROM PREVIOUS STRESS PERIOD. CURRENT PERIOD IS:      22

 USING EXTINCTION WATER CONTENT FROM PREVIOUS STRESS PERIOD. CURRENT PERIOD IS:      22

 PROCESSING AGO STRESS PERIOD DATA

 READING AGO STRESS PERIOD DATA

 READING IRRIGATION STREAM

 READING IRRIGATION WELL

 READING SUPPLEMENTAL WEL

 END PROCESSING AGO STRESS PERIOD DATA OPTIONS
 
 SOLVING FOR HEAD 
                                                   Max.-Head-Change                         Max.-Flux-Residual
  Residual-Control   Outer-Iter.   Inner-Iter.     Column Row Layer    Maximum-Head-Change  Column Row Layer    Maximum-Flux-Residual          L2-NORM 
          0                 1           2             3   13     1       0.2221171515E-01       3   13    1         0.1256340591E+01      0.3079759199E+01
          0                 2           2             1    4     1       0.1751992619E-02       5   13    1        -0.8006274609E-01      0.3251536064E+00
          0                 3           2             1    4     1       0.7871111923E-03       1    4    1         0.2044839592E-01      0.1060654827E+00
          0                 4           2             1    4     1       0.3536214382E-03       1    4    1         0.9186769807E-02      0.4521700763E-01
          0                 5           2             1    4     1       0.1588692081E-03       1    4    1         0.4127291047E-02      0.2009675856E-01
          0                 6           1             1    4     1       0.7137390981E-04       1    4    1         0.1854240209E-02      0.9022470420E-02
          0                 7           1             1    4     1       0.3206548531E-04       7    6    1         0.9412996942E-03      0.4105815659E-02
          0                 8           1             7    6     1      -0.2678019657E-04       7    6    1        -0.1530800281E-02      0.2374236108E-02
          0                 9           1             7    6     1       0.2031791574E-04       7    6    1         0.1172011983E-02      0.1498266999E-02
          0                10           1             7    6     1      -0.2048855017E-04       7    6    1        -0.1192616563E-02      0.1309108792E-02
                                                   Max.-Head-Change                         Max.-Flux-Residual
  Residual-Control   Outer-Iter.   Inner-Iter.     Column Row Layer    Maximum-Head-Change  Column Row Layer    Maximum-Flux-Residual          L2-NORM 
          0                11           1             7    6     1       0.1902305777E-04       7    6    1         0.1117403804E-02      0.1231272518E-02
          0                12           1             7    6     1      -0.2245439220E-04       7    6    1        -0.1330937229E-02      0.1395012503E-02
          0                13           1             7    6     1       0.1073781334E-04       7    6    1         0.6423359487E-03      0.8173900771E-03
          0                14           1             7    6     1       0.2240873704E-04       7    6    1         0.1340126858E-02      0.1412174278E-02
          0                15           1             7    6     1      -0.1635103949E-04       7    6    1        -0.9869543683E-03      0.1059060529E-02
          0                16           1             7    6     1       0.8573555275E-05       7    6    1         0.5221901947E-03      0.6964213313E-03

    ------------------------------------------------
       NWT REQUIRED           16 OUTER ITERATIONS 
       AND A TOTAL OF         21 INNER ITERATIONS.
    ------------------------------------------------

 NO OUTPUT CONTROL FOR STRESS PERIOD   22   TIME STEP    1
 
 SOLVING FOR HEAD 
                                                   Max.-Head-Change                         Max.-Flux-Residual
  Residual-Control   Outer-Iter.   Inner-Iter.     Column Row Layer    Maximum-Head-Change  Column Row Layer    Maximum-Flux-Residual          L2-NORM 
          0                 1           2             7    6     1      -0.2131529210E-01       7    6    1        -0.1172204103E+01      0.3130865834E+01
          0                 2           2             7    6     1       0.2380984299E-01       7    6    1         0.1310937343E+01      0.1351768909E+01
          0                 3           2             7    6     1      -0.5647426788E-01       7    6    1        -0.3141194680E+01      0.3143000902E+01
          0                 4           2             7    6     1       0.5834314528E-01       7    6    1         0.3274809304E+01      0.3275168855E+01
          0                 5           2             7    6     1      -0.3401117361E-03       7    6    1        -0.1967459683E-01      0.3267346590E-01
          0                 6           1             1    4     1       0.7134108574E-04       7    6    1        -0.3647927766E-02      0.1001632198E-01
          0                 7           1             1    4     1       0.3205065623E-04       1    4    1         0.8326558243E-03      0.4047447062E-02
          0                 8           1             1    4     1       0.1439901132E-04       1    4    1         0.3740782639E-03      0.1774055554E-02
          0                 9           1             1    4     1       0.6468847514E-05       1    4    1         0.1680575196E-03      0.7898369151E-03

    ------------------------------------------------
       NWT REQUIRED            9 OUTER ITERATIONS 
       AND A TOTAL OF         14 INNER ITERATIONS.
    ------------------------------------------------

 NO OUTPUT CONTROL FOR STRESS PERIOD   22   TIME STEP    2
 
 SOLVING FOR HEAD 
                                                   Max.-Head-Change                         Max.-Flux-Residual
  Residual-Control   Outer-Iter.   Inner-Iter.     Column Row Layer    Maximum-Head-Change  Column Row Layer    Maximum-Flux-Residual          L2-NORM 
          0                 1           2             7    6     1      -0.2132440307E-01       7    6    1        -0.1172700828E+01      0.2988079054E+01
          0                 2           2             7    6     1       0.2381133026E-01       7    6    1         0.1311020329E+01      0.1346843930E+01
          0                 3           2             7    6     1      -0.7000534244E-01       7    6    1        -0.3893721735E+01      0.3895155117E+01
          0                 4           2             7    6     1       0.7282337162E-01       7    6    1         0.4087594564E+01      0.4088773098E+01
          0                 5           2             7    6     1      -0.1110962179E-02       7    6    1        -0.6343315984E-01      0.6992006659E-01
          0                 6           2             7    6     1      -0.2101226328E-03       7    6    1        -0.1198188943E-01      0.1526961440E-01
          0                 7           1             7    6     1      -0.3980864555E-04       7    6    1        -0.2267329128E-02      0.4584848533E-02
          0                 8           1             1    4     1       0.1439229083E-04       7    6    1        -0.4297478854E-03      0.1816879249E-02
          0                 9           1             1    4     1       0.6465810665E-05       1    4    1         0.1679790037E-03      0.7919194454E-03

    ------------------------------------------------
       NWT REQUIRED            9 OUTER ITERATIONS 
       AND A TOTAL OF         15 INNER ITERATIONS.
    ------------------------------------------------

 NO OUTPUT CONTROL FOR STRESS PERIOD   22   TIME STEP    3
 
 SOLVING FOR HEAD 
                                                   Max.-Head-Change                         Max.-Flux-Residual
  Residual-Control   Outer-Iter.   Inner-Iter.     Column Row Layer    Maximum-Head-Change  Column Row Layer    Maximum-Flux-Residual          L2-NORM 
          0                 1           2             1   13     1       0.1819074141E-01       1   13    1         0.9886647803E+00      0.2613935945E+01
          0                 2           2             1    4     1       0.1749620198E-02       5   13    1        -0.7311570088E-01      0.3055425400E+00
     PET DIFF ERROR     6    7   -0.1418961009E-08    0.2499999985E-07
     PET DIFF ERROR     6    8   -0.1418960827E-08    0.2499999985E-07
          0                 3           2             7    6     1      -0.7248592337E-01       7    6    1        -0.3994908571E+01      0.3996271004E+01
          0                 4           2             7    6     1       0.7473683683E-01       7    6    1         0.4156989492E+01      0.4157296360E+01
     PET DIFF ERROR     6    7   -0.3391863382E-08    0.2499999985E-07
     PET DIFF ERROR     6    8   -0.3391863320E-08    0.2499999985E-07
          0                 5           2             7    6     1      -0.7194220654E-01       7    6    1        -0.4038213621E+01      0.4038321053E+01
          0                 6           2             7    6     1       0.7042351978E-01       7    6    1         0.3989075108E+01      0.3989148598E+01
     PET DIFF ERROR     6    7   -0.2033691741E-08    0.2499999985E-07
     PET DIFF ERROR     6    8   -0.2033691656E-08    0.2499999985E-07
          0                 7           2             7    6     1      -0.6668060876E-01       7    6    1        -0.3811632172E+01      0.3811688831E+01
          0                 8           2             7    6     1       0.6525650466E-01       7    6    1         0.3764225202E+01      0.3764276784E+01
          0                 9           2             7    6     1       0.4985170757E-03       7    6    1         0.2829542371E-01      0.3391836649E-01
          0                10           1             7    6     1       0.9706642294E-04       7    6    1         0.5500469684E-02      0.6826987148E-02
                                                   Max.-Head-Change                         Max.-Flux-Residual
  Residual-Control   Outer-Iter.   Inner-Iter.     Column Row Layer    Maximum-Head-Change  Column Row Layer    Maximum-Flux-Residual          L2-NORM 
          0                11           1             7    6     1       0.2918355637E-04       7    6    1         0.1662259532E-02      0.1932641022E-02
          0                12           1             7    6     1       0.1560959295E-04       7    6    1         0.8957366176E-03      0.1016053300E-02
          0                13           1             7    6     1      -0.3448979188E-04       7    6    1        -0.2008401219E-02      0.2049827555E-02
     PET DIFF ERROR     6    7   -0.1950483083E-09    0.2499999985E-07
     PET DIFF ERROR     6    8   -0.1950483118E-09    0.2499999985E-07
          0                14           1             7    6     1       0.2540980556E-04       7    6    1         0.1492414111E-02      0.1581864656E-02
     PET DIFF ERROR     6    7   -0.2473758612E-09    0.2499999985E-07
     PET DIFF ERROR     6    8   -0.2473758652E-09    0.2499999985E-07
          0                15           1             7    6     1      -0.3041028293E-04       7    6    1        -0.1802495920E-02      0.1850636774E-02
     PET DIFF ERROR     6    7   -0.3581593087E-09    0.2499999985E-07
     PET DIFF ERROR     6    8   -0.3581593137E-09    0.2499999985E-07
          0                16           2             7    6     1      -0.6115700707E-01       7    6    1        -0.3624492609E+01      0.3624492648E+01
          0                17           2             7    6     1       0.5821495687E-01       7    6    1         0.3481998962E+01      0.3482063322E+01
     PET DIFF ERROR     6    7   -0.4616198067E-09    0.2499999985E-07
     PET DIFF ERROR     6    8   -0.4616198119E-09    0.2499999985E-07
          0                18           2             7    6     1      -0.5758805291E-01       7    6    1        -0.3475683594E+01      0.3475716891E+01
          0                19           2             7    6     1       0.5655291849E-01       7    6    1         0.3444191789E+01      0.3444230359E+01
     PET DIFF ERROR     6    7   -0.7357308269E-09    0.2499999985E-07
     PET DIFF ERROR     6    8   -0.7357308307E-09    0.2499999985E-07
          0                20           2             7    6     1      -0.5547945507E-01       7    6    1        -0.3409467503E+01      0.3409502988E+01
                                                   Max.-Head-Change                         Max.-Flux-Residual
  Residual-Control   Outer-Iter.   Inner-Iter.     Column Row Layer    Maximum-Head-Change  Column Row Layer    Maximum-Flux-Residual          L2-NORM 
          0                21           2             7    6     1       0.5450169989E-01       7    6    1         0.3379689163E+01      0.3379723943E+01
     PET DIFF ERROR     6    7   -0.1124114757E-08    0.2499999985E-07
     PET DIFF ERROR     6    8   -0.1124114747E-08    0.2499999985E-07
          0                22           2             7    6     1      -0.5328780520E-01       7    6    1        -0.3334338086E+01      0.3334371345E+01
          0                23           2             7    6     1       0.5237415367E-01       7    6    1         0.3306760062E+01      0.3306792642E+01
     PET DIFF ERROR     6    7   -0.7282140481E-09    0.2499999985E-07
     PET DIFF ERROR     6    8   -0.7282140063E-09    0.2499999985E-07
          0                24           2             7    6     1      -0.5094166471E-01       7    6    1        -0.3245382962E+01      0.3245413900E+01
          0                25           2             7    6     1       0.5010284296E-01       7    6    1         0.3220702166E+01      0.3220731512E+01
          0                26           2             7    6     1       0.4927573439E-02       7    6    1         0.3163908523E+00      0.3166756657E+00
          0                27           2             7    6     1       0.1416881721E-02       7    6    1         0.9093319014E-01      0.9110258012E-01
          0                28           2             7    6     1       0.4075443546E-03       7    6    1         0.2614340745E-01      0.2622620443E-01
          0                29           2             7    6     1       0.1172616959E-03       7    6    1         0.7518697784E-02      0.7554857982E-02
          0                30           1             7    6     1       0.3375023600E-04       7    6    1         0.2163033154E-02      0.2177713856E-02
          0                31           1             7    6     1       0.9717089636E-05       7    6    1         0.6224769277E-03      0.6281424026E-03

    ------------------------------------------------
       NWT REQUIRED           31 OUTER ITERATIONS 
       AND A TOTAL OF         54 INNER ITERATIONS.
    ------------------------------------------------

 NO OUTPUT CONTROL FOR STRESS PERIOD   22   TIME STEP    4
 
 SOLVING FOR HEAD 
     PET DIFF ERROR     6    7   -0.4543570231E-08    0.2499999985E-07
     PET DIFF ERROR     6    8   -0.4543570131E-08    0.2499999985E-07
                                                   Max.-Head-Change                         Max.-Flux-Residual
  Residual-Control   Outer-Iter.   Inner-Iter.     Column Row Layer    Maximum-Head-Change  Column Row Layer    Maximum-Flux-Residual          L2-NORM 
          0                 1           2             7    6     1      -0.2134120362E-01       7    6    1        -0.1173583751E+01      0.2741091113E+01
          0                 2           2             7    6     1       0.2381398546E-01       7    6    1         0.1311175893E+01      0.1345129461E+01
          0                 3           2             7    6     1      -0.6674483995E-01       7    6    1        -0.3712392650E+01      0.3713870524E+01
          0                 4           2             7    6     1       0.6933384458E-01       7    6    1         0.3891729886E+01      0.3892129578E+01
     PET DIFF ERROR     6    7   -0.1729188983E-08    0.2499999985E-07
     PET DIFF ERROR     6    8   -0.1729188915E-08    0.2499999985E-07
          0                 5           2             7    6     1      -0.5879341637E-01       7    6    1        -0.3330393963E+01      0.3330512391E+01
          0                 6           2             7    6     1       0.5700664670E-01       7    6    1         0.3258585965E+01      0.3258640153E+01
     PET DIFF ERROR     6    7   -0.1545894341E-08    0.2499999985E-07
     PET DIFF ERROR     6    8   -0.1545894349E-08    0.2499999985E-07
          0                 7           2             7    6     1      -0.5502588799E-01       7    6    1        -0.3174119278E+01      0.3174162486E+01
          0                 8           2             7    6     1       0.5393614368E-01       7    6    1         0.3139600527E+01      0.3139640263E+01
     PET DIFF ERROR     6    7   -0.1998799055E-08    0.2499999985E-07
     PET DIFF ERROR     6    8   -0.1998799036E-08    0.2499999985E-07
          0                 9           2             7    6     1      -0.5206377467E-01       7    6    1        -0.3058255191E+01      0.3058292000E+01
          0                10           2             7    6     1       0.5106934563E-01       7    6    1         0.3027118365E+01      0.3027155777E+01
     PET DIFF ERROR     6    7   -0.8537423996E-09    0.2499999985E-07
     PET DIFF ERROR     6    8   -0.8537423529E-09    0.2499999985E-07
                                                   Max.-Head-Change                         Max.-Flux-Residual
  Residual-Control   Outer-Iter.   Inner-Iter.     Column Row Layer    Maximum-Head-Change  Column Row Layer    Maximum-Flux-Residual          L2-NORM 
          0                11           2             7    6     1      -0.4891426855E-01       7    6    1        -0.2925773496E+01      0.2925807091E+01
          0                12           2             7    6     1       0.4800855752E-01       7    6    1         0.2897655371E+01      0.2897686295E+01
          0                13           2             7    6     1       0.2689919417E-02       7    6    1         0.1620179394E+00      0.1625415876E+00
          0                14           2             7    6     1       0.7123717614E-03       7    6    1         0.4289479230E-01      0.4307628843E-01
          0                15           2             7    6     1       0.1720226297E-03       7    6    1         0.1035300378E-01      0.1041785383E-01
          0                16           1             7    6     1       0.4155855281E-04       7    6    1         0.2499948949E-02      0.2521520901E-02
          0                17           1             7    6     1       0.1004440538E-04       7    6    1         0.6039370576E-03      0.6107577646E-03
          0                18           1             7    6     1       0.2428681108E-05       7    6    1         0.1459624309E-03      0.1480460053E-03

    ------------------------------------------------
       NWT REQUIRED           18 OUTER ITERATIONS 
       AND A TOTAL OF         33 INNER ITERATIONS.
    ------------------------------------------------

 NO OUTPUT CONTROL FOR STRESS PERIOD   22   TIME STEP    5
 
 SOLVING FOR HEAD 
                                                   Max.-Head-Change                         Max.-Flux-Residual
  Residual-Control   Outer-Iter.   Inner-Iter.     Column Row Layer    Maximum-Head-Change  Column Row Layer    Maximum-Flux-Residual          L2-NORM 
          0                 1           2             1   13     1       0.1665644800E-01       1   13    1         0.9056590475E+00      0.2364486768E+01
          0                 2           2             1    4     1       0.1748007630E-02       5   13    1        -0.6857826231E-01      0.2976228813E+00
          0                 3           2             7    6     1      -0.7235920410E-01       7    6    1        -0.3987928800E+01      0.3989272294E+01
          0                 4           2             7    6     1       0.7460582710E-01       7    6    1         0.4149707349E+01      0.4150550619E+01
          0                 5           2             7    6     1      -0.1740569129E-02       7    6    1        -0.9822054161E-01      0.1026353117E+00
          0                 6           2             7    6     1      -0.3174577356E-03       7    6    1        -0.1789623666E-01      0.2020077525E-01
          0                 7           1             7    6     1      -0.5797735430E-04       7    6    1        -0.3265301549E-02      0.5123313252E-02
          0                 8           1             1    4     1       0.1437179223E-04       7    6    1        -0.5965571456E-03      0.1850531930E-02
          0                 9           1             1    4     1       0.6456548053E-05       1    4    1         0.1677395006E-03      0.7897515279E-03

    ------------------------------------------------
       NWT REQUIRED            9 OUTER ITERATIONS 
       AND A TOTAL OF         15 INNER ITERATIONS.
    ------------------------------------------------

 NO OUTPUT CONTROL FOR STRESS PERIOD   22   TIME STEP    6
 
 SOLVING FOR HEAD 
                                                   Max.-Head-Change                         Max.-Flux-Residual
  Residual-Control   Outer-Iter.   Inner-Iter.     Column Row Layer    Maximum-Head-Change  Column Row Layer    Maximum-Flux-Residual          L2-NORM 
          0                 1           2             1   13     1       0.1593515986E-01       1   13    1         0.8666091810E+00      0.2256757191E+01
          0                 2           2             1    4     1       0.1747131196E-02       5   13    1        -0.6629402091E-01      0.2946768944E+00
          0                 3           2             7    6     1      -0.7248650439E-01       7    6    1        -0.3994946587E+01      0.3996278004E+01
          0                 4           2             7    6     1       0.7474605151E-01       7    6    1         0.4157509141E+01      0.4157877118E+01
     PET DIFF ERROR     6    7   -0.2539713824E-08    0.2499999985E-07
     PET DIFF ERROR     6    8   -0.2539713801E-08    0.2499999985E-07
          0                 5           2             7    6     1      -0.6516582167E-01       7    6    1        -0.3657902489E+01      0.3658020701E+01
          0                 6           2             7    6     1       0.6323673793E-01       7    6    1         0.3581990808E+01      0.3582054787E+01
     PET DIFF ERROR     6    7   -0.1863782787E-08    0.2499999985E-07
     PET DIFF ERROR     6    8   -0.1863782714E-08    0.2499999985E-07
          0                 7           2             7    6     1      -0.6046525297E-01       7    6    1        -0.3456348960E+01      0.3456399956E+01
          0                 8           2             7    6     1       0.5921087974E-01       7    6    1         0.3415501262E+01      0.3415548164E+01
     PET DIFF ERROR     6    7   -0.2039629441E-08    0.2499999985E-07
     PET DIFF ERROR     6    8   -0.2039629429E-08    0.2499999985E-07
          0                 9           2             7    6     1      -0.5700501836E-01       7    6    1        -0.3318287070E+01      0.3318330465E+01
          0                10           2             7    6     1       0.5588993716E-01       7    6    1         0.3282984693E+01      0.3283027718E+01
     PET DIFF ERROR     6    7   -0.8706243687E-09    0.2499999985E-07
     PET DIFF ERROR     6    8   -0.8706243265E-09    0.2499999985E-07
                                                   Max.-Head-Change                         Max.-Flux-Residual
  Residual-Control   Outer-Iter.   Inner-Iter.     Column Row Layer    Maximum-Head-Change  Column Row Layer    Maximum-Flux-Residual          L2-NORM 
          0                11           2             7    6     1      -0.5361975096E-01       7    6    1        -0.3178338903E+01      0.3178378225E+01
          0                12           2             7    6     1       0.5260659918E-01       7    6    1         0.3146605145E+01      0.3146641349E+01
          0                13           2             7    6     1       0.2425752047E-02       7    6    1         0.1447163429E+00      0.1454625148E+00
          0                14           2             7    6     1       0.5691507130E-03       7    6    1         0.3393422940E-01      0.3420206419E-01
          0                15           2             7    6     1       0.1336113062E-03       7    6    1         0.7961496448E-02      0.8050627744E-02
          0                16           1             7    6     1       0.3138364068E-04       7    6    1         0.1868947281E-02      0.1897095579E-02
          0                17           1             7    6     1       0.7375748744E-05       7    6    1         0.4389787966E-03      0.4475486743E-03

    ------------------------------------------------
       NWT REQUIRED           17 OUTER ITERATIONS 
       AND A TOTAL OF         32 INNER ITERATIONS.
    ------------------------------------------------

 NO OUTPUT CONTROL FOR STRESS PERIOD   22   TIME STEP    7
 
 SOLVING FOR HEAD 
     PET DIFF ERROR     6    7   -0.1740242357E-08    0.2499999985E-07
     PET DIFF ERROR     6    8   -0.1740242286E-08    0.2499999985E-07
                                                   Max.-Head-Change                         Max.-Flux-Residual
  Residual-Control   Outer-Iter.   Inner-Iter.     Column Row Layer    Maximum-Head-Change  Column Row Layer    Maximum-Flux-Residual          L2-NORM 
          0                 1           2             7    6     1      -0.2136404629E-01       7    6    1        -0.1174845396E+01      0.2450351018E+01
          0                 2           2             7    6     1       0.2381817952E-01       7    6    1         0.1311407494E+01      0.1342989607E+01
          0                 3           2             7    6     1      -0.6940025852E-01       7    6    1        -0.3860079681E+01      0.3861470440E+01
          0                 4           2             7    6     1       0.7217519798E-01       7    6    1         0.4051223421E+01      0.4051803177E+01
          0                 5           2             7    6     1      -0.1239035356E-02       7    6    1        -0.7068216470E-01      0.7630582833E-01
          0                 6           1             7    6     1      -0.8381889930E-04       7    6    1        -0.4826436973E-02      0.1052082656E-01
          0                 7           1             1    4     1       0.3195852182E-04       7    6    1        -0.9004893236E-03      0.4041865444E-02
          0                 8           1             1    4     1       0.1435738208E-04       1    4    1         0.3730018056E-03      0.1753574194E-02
          0                 9           1             1    4     1       0.6450038163E-05       1    4    1         0.1675711409E-03      0.7797514863E-03

    ------------------------------------------------
       NWT REQUIRED            9 OUTER ITERATIONS 
       AND A TOTAL OF         14 INNER ITERATIONS.
    ------------------------------------------------

 NO OUTPUT CONTROL FOR STRESS PERIOD   22   TIME STEP    8
 
 SOLVING FOR HEAD 
                                                   Max.-Head-Change                         Max.-Flux-Residual
  Residual-Control   Outer-Iter.   Inner-Iter.     Column Row Layer    Maximum-Head-Change  Column Row Layer    Maximum-Flux-Residual          L2-NORM 
          0                 1           2             1   13     1       0.1456113674E-01       1   13    1         0.7921847874E+00      0.2065780997E+01
          0                 2           2             1    4     1       0.1745490736E-02       5   13    1        -0.6192550180E-01      0.2904226841E+00
          0                 3           2             7    6     1      -0.7239624239E-01       7    6    1        -0.3989976879E+01      0.3991292760E+01
          0                 4           2             7    6     1       0.7465361700E-01       7    6    1         0.4152372400E+01      0.4153169405E+01
          0                 5           2             7    6     1      -0.1749942713E-02       7    6    1        -0.9874716311E-01      0.1031350176E+00
          0                 6           2             7    6     1      -0.3191386282E-03       7    6    1        -0.1799058636E-01      0.2025792553E-01
          0                 7           1             7    6     1      -0.5827902654E-04       7    6    1        -0.3282219691E-02      0.5113634877E-02
          0                 8           1             1    4     1       0.1435038448E-04       7    6    1        -0.5995932095E-03      0.1840820402E-02
          0                 9           1             1    4     1       0.6446876009E-05       1    4    1         0.1674893795E-03      0.7850730087E-03

    ------------------------------------------------
       NWT REQUIRED            9 OUTER ITERATIONS 
       AND A TOTAL OF         15 INNER ITERATIONS.
    ------------------------------------------------

 NO OUTPUT CONTROL FOR STRESS PERIOD   22   TIME STEP    9
 
 SOLVING FOR HEAD 
                                                   Max.-Head-Change                         Max.-Flux-Residual
  Residual-Control   Outer-Iter.   Inner-Iter.     Column Row Layer    Maximum-Head-Change  Column Row Layer    Maximum-Flux-Residual          L2-NORM 
          0                 1           2             1   13     1       0.1391585964E-01       1   13    1         0.7572119704E+00      0.1982209352E+01
          0                 2           2             1    4     1       0.1744663846E-02       5   13    1        -0.5976329413E-01      0.2886663596E+00
          0                 3           2             7    6     1      -0.7248692047E-01       7    6    1        -0.3994976065E+01      0.3996281720E+01
          0                 4           2             7    6     1       0.7475393139E-01       7    6    1         0.4157954431E+01      0.4158331449E+01
     PET DIFF ERROR     6    7   -0.3123347609E-08    0.2499999985E-07
     PET DIFF ERROR     6    8   -0.3123347559E-08    0.2499999985E-07
          0                 5           2             7    6     1      -0.6425667838E-01       7    6    1        -0.3606883818E+01      0.3607003060E+01
          0                 6           2             7    6     1       0.6227201310E-01       7    6    1         0.3527350406E+01      0.3527416617E+01
     PET DIFF ERROR     6    7   -0.2327990509E-08    0.2499999985E-07
     PET DIFF ERROR     6    8   -0.2327990501E-08    0.2499999985E-07
          0                 7           2             7    6     1      -0.5900833612E-01       7    6    1        -0.3373077623E+01      0.3373128388E+01
          0                 8           2             7    6     1       0.5775100778E-01       7    6    1         0.3331296168E+01      0.3331343588E+01
     PET DIFF ERROR     6    7   -0.9372498065E-09    0.2499999985E-07
     PET DIFF ERROR     6    8   -0.9372497614E-09    0.2499999985E-07
          0                 9           2             7    6     1      -0.5519184039E-01       7    6    1        -0.3212749647E+01      0.3212792317E+01
          0                10           2             7    6     1       0.5409503819E-01       7    6    1         0.3177557615E+01      0.3177596515E+01
                                                   Max.-Head-Change                         Max.-Flux-Residual
  Residual-Control   Outer-Iter.   Inner-Iter.     Column Row Layer    Maximum-Head-Change  Column Row Layer    Maximum-Flux-Residual          L2-NORM 
          0                11           2             7    6     1       0.1704968743E-02       7    6    1         0.9976357781E-01      0.1009309763E+00
          0                12           2             7    6     1       0.3766480531E-03       7    6    1         0.2202496918E-01      0.2237573505E-01
          0                13           1             7    6     1       0.8326036028E-04       7    6    1         0.4865680449E-02      0.4966830858E-02
          0                14           1             7    6     1       0.1841712960E-04       7    6    1         0.1075609900E-02      0.1103934176E-02
          0                15           1             7    6     1       0.4076474504E-05       7    6    1         0.2379287184E-03      0.2457305286E-03

    ------------------------------------------------
       NWT REQUIRED           15 OUTER ITERATIONS 
       AND A TOTAL OF         27 INNER ITERATIONS.
    ------------------------------------------------

 NO OUTPUT CONTROL FOR STRESS PERIOD   22   TIME STEP   10
 
 SOLVING FOR HEAD 
     PET DIFF ERROR     6    7   -0.2125330598E-08    0.2499999985E-07
     PET DIFF ERROR     6    8   -0.2125330605E-08    0.2499999985E-07
                                                   Max.-Head-Change                         Max.-Flux-Residual
  Residual-Control   Outer-Iter.   Inner-Iter.     Column Row Layer    Maximum-Head-Change  Column Row Layer    Maximum-Flux-Residual          L2-NORM 
          0                 1           2             7    6     1      -0.2138280599E-01       7    6    1        -0.1175860293E+01      0.2232461776E+01
          0                 2           2             7    6     1       0.2382181472E-01       7    6    1         0.1311614752E+01      0.1342049577E+01
          0                 3           2             7    6     1      -0.6908101458E-01       7    6    1        -0.3842330081E+01      0.3843701625E+01
          0                 4           2             7    6     1       0.7183320199E-01       7    6    1         0.4032033657E+01      0.4032580343E+01
     PET DIFF ERROR     6    7   -0.6343410478E-09    0.2499999985E-07
     PET DIFF ERROR     6    8   -0.6343410014E-09    0.2499999985E-07
          0                 5           2             7    6     1      -0.5466060428E-01       7    6    1        -0.3096349503E+01      0.3096481289E+01
          0                 6           2             7    6     1       0.5249149227E-01       7    6    1         0.3000498764E+01      0.3000547120E+01
          0                 7           2             7    6     1       0.6608833199E-03       7    6    1         0.3740916490E-01      0.4043534312E-01
          0                 8           2             7    6     1       0.1448450333E-03       7    6    1         0.8203936626E-02      0.8922395365E-02
          0                 9           1             7    6     1       0.2907193795E-04       7    6    1         0.1646166415E-02      0.1926236422E-02
          0                10           1             7    6     1       0.5836874065E-05       7    6    1         0.3304138486E-03      0.4969226729E-03

    ------------------------------------------------
       NWT REQUIRED           10 OUTER ITERATIONS 
       AND A TOTAL OF         18 INNER ITERATIONS.
    ------------------------------------------------

 NO OUTPUT CONTROL FOR STRESS PERIOD   22   TIME STEP   11
 
 SOLVING FOR HEAD 
                                                   Max.-Head-Change                         Max.-Flux-Residual
  Residual-Control   Outer-Iter.   Inner-Iter.     Column Row Layer    Maximum-Head-Change  Column Row Layer    Maximum-Flux-Residual          L2-NORM 
          0                 1           2             1   13     1       0.1269001657E-01       1   13    1         0.6907480548E+00      0.1835045640E+01
          0                 2           2             1    4     1       0.1742923080E-02       5   13    1        -0.5565426057E-01      0.2865407038E+00
          0                 3           2             7    6     1      -0.7237164067E-01       7    6    1        -0.3988625962E+01      0.3989920064E+01
          0                 4           2             7    6     1       0.7463398278E-01       7    6    1         0.4151287135E+01      0.4152091035E+01
          0                 5           2             7    6     1      -0.1754654037E-02       7    6    1        -0.9901127949E-01      0.1033604794E+00
          0                 6           2             7    6     1      -0.3199468441E-03       7    6    1        -0.1803576193E-01      0.2027170726E-01
          0                 7           1             7    6     1      -0.5841756738E-04       7    6    1        -0.3289942940E-02      0.5099597785E-02
          0                 8           1             1    4     1       0.1432855879E-04       7    6    1        -0.6009117328E-03      0.1831284726E-02
          0                 9           1             1    4     1       0.6437016882E-05       1    4    1         0.1672343877E-03      0.7806290699E-03

    ------------------------------------------------
       NWT REQUIRED            9 OUTER ITERATIONS 
       AND A TOTAL OF         15 INNER ITERATIONS.
    ------------------------------------------------

 NO OUTPUT CONTROL FOR STRESS PERIOD   22   TIME STEP   12
 
 SOLVING FOR HEAD 
                                                   Max.-Head-Change                         Max.-Flux-Residual
  Residual-Control   Outer-Iter.   Inner-Iter.     Column Row Layer    Maximum-Head-Change  Column Row Layer    Maximum-Flux-Residual          L2-NORM 
          0                 1           2             1   13     1       0.1211637189E-01       1   13    1         0.6596317742E+00      0.1771255953E+01
          0                 2           2             1    4     1       0.1742079655E-02       5   13    1        -0.5362306787E-01      0.2858002410E+00
          0                 3           2             7    6     1      -0.7248737330E-01       7    6    1        -0.3995005907E+01      0.3996291566E+01
          0                 4           2             7    6     1       0.7476127207E-01       7    6    1         0.4158369518E+01      0.4158725068E+01
     PET DIFF ERROR     6    7   -0.1793130062E-08    0.2499999985E-07
     PET DIFF ERROR     6    8   -0.1793129970E-08    0.2499999985E-07
          0                 5           2             7    6     1      -0.6517149726E-01       7    6    1        -0.3658233025E+01      0.3658349678E+01
          0                 6           2             7    6     1       0.6324155935E-01       7    6    1         0.3582275651E+01      0.3582336433E+01
     PET DIFF ERROR     6    7   -0.2700399725E-08    0.2499999985E-07
     PET DIFF ERROR     6    8   -0.2700399666E-08    0.2499999985E-07
          0                 7           2             7    6     1      -0.6109655095E-01       7    6    1        -0.3492442334E+01      0.3492492691E+01
          0                 8           2             7    6     1       0.5986799018E-01       7    6    1         0.3453417449E+01      0.3453467973E+01
     PET DIFF ERROR     6    7   -0.2505337957E-08    0.2499999985E-07
     PET DIFF ERROR     6    8   -0.2505337931E-08    0.2499999985E-07
          0                 9           2             7    6     1      -0.5694870812E-01       7    6    1        -0.3315024966E+01      0.3315069299E+01
          0                10           2             7    6     1       0.5580567237E-01       7    6    1         0.3278044909E+01      0.3278089399E+01
                                                   Max.-Head-Change                         Max.-Flux-Residual
  Residual-Control   Outer-Iter.   Inner-Iter.     Column Row Layer    Maximum-Head-Change  Column Row Layer    Maximum-Flux-Residual          L2-NORM 
          0                11           2             7    6     1       0.1669994191E-02       7    6    1         0.9769788078E-01      0.9896486533E-01
          0                12           2             7    6     1       0.3689439974E-03       7    6    1         0.2157033849E-01      0.2194466352E-01
          0                13           1             7    6     1       0.8156173610E-04       7    6    1         0.4765529615E-02      0.4872112772E-02
          0                14           1             7    6     1       0.1804224969E-04       7    6    1         0.1053526758E-02      0.1083076408E-02
          0                15           1             7    6     1       0.3993659934E-05       7    6    1         0.2330547657E-03      0.2411288178E-03

    ------------------------------------------------
       NWT REQUIRED           15 OUTER ITERATIONS 
       AND A TOTAL OF         27 INNER ITERATIONS.
    ------------------------------------------------

 NO OUTPUT CONTROL FOR STRESS PERIOD   22   TIME STEP   13
 
 SOLVING FOR HEAD 
     PET DIFF ERROR     6    7   -0.2557804916E-08    0.2499999985E-07
     PET DIFF ERROR     6    8   -0.2557804848E-08    0.2499999985E-07
                                                   Max.-Head-Change                         Max.-Flux-Residual
  Residual-Control   Outer-Iter.   Inner-Iter.     Column Row Layer    Maximum-Head-Change  Column Row Layer    Maximum-Flux-Residual          L2-NORM 
          0                 1           2             7    6     1      -0.2140004078E-01       7    6    1        -0.1176783015E+01      0.2070286992E+01
          0                 2           2             7    6     1       0.2382530704E-01       7    6    1         0.1311813664E+01      0.1341667731E+01
          0                 3           2             7    6     1      -0.6870807020E-01       7    6    1        -0.3821594320E+01      0.3822952988E+01
          0                 4           2             7    6     1       0.7143375690E-01       7    6    1         0.4009619338E+01      0.4010121461E+01
     PET DIFF ERROR     6    7   -0.1677268579E-08    0.2499999985E-07
     PET DIFF ERROR     6    8   -0.1677268536E-08    0.2499999985E-07
          0                 5           2             7    6     1      -0.5543881965E-01       7    6    1        -0.3140428172E+01      0.3140556171E+01
          0                 6           2             7    6     1       0.5333679716E-01       7    6    1         0.3048823624E+01      0.3048874591E+01
          0                 7           2             7    6     1       0.6252505462E-03       7    6    1         0.3536700160E-01      0.3864145450E-01
          0                 8           2             7    6     1       0.1351132685E-03       7    6    1         0.7646962896E-02      0.8422611807E-02
          0                 9           1             7    6     1       0.2713936376E-04       7    6    1         0.1535648561E-02      0.1831838896E-02
          0                10           1             7    6     1       0.5452716112E-05       7    6    1         0.3084618929E-03      0.4812533805E-03

    ------------------------------------------------
       NWT REQUIRED           10 OUTER ITERATIONS 
       AND A TOTAL OF         18 INNER ITERATIONS.
    ------------------------------------------------

 NO OUTPUT CONTROL FOR STRESS PERIOD   22   TIME STEP   14
 
 SOLVING FOR HEAD 
                                                   Max.-Head-Change                         Max.-Flux-Residual
  Residual-Control   Outer-Iter.   Inner-Iter.     Column Row Layer    Maximum-Head-Change  Column Row Layer    Maximum-Flux-Residual          L2-NORM 
          0                 1           2             5   13     1       0.1126516716E-01       5   13    1         0.6046576883E+00      0.1657490616E+01
          0                 2           2             1    4     1       0.1740304921E-02       5   13    1        -0.4980056869E-01      0.2848105786E+00
          0                 3           2             7    6     1      -0.7237926263E-01       7    6    1        -0.3989051948E+01      0.3990327636E+01
          0                 4           2             7    6     1       0.7464881091E-01       7    6    1         0.4152118857E+01      0.4152914823E+01
          0                 5           2             7    6     1      -0.1761108271E-02       7    6    1        -0.9937377983E-01      0.1036838955E+00
          0                 6           2             7    6     1      -0.3210692897E-03       7    6    1        -0.1809874335E-01      0.2030506191E-01
          0                 7           1             7    6     1      -0.5861251232E-04       7    6    1        -0.3300870753E-02      0.5089699055E-02
          0                 8           1             1    4     1       0.1430629991E-04       7    6    1        -0.6028047583E-03      0.1822897035E-02
          0                 9           1             1    4     1       0.6426962418E-05       1    4    1         0.1669743358E-03      0.7766098870E-03

    ------------------------------------------------
       NWT REQUIRED            9 OUTER ITERATIONS 
       AND A TOTAL OF         15 INNER ITERATIONS.
    ------------------------------------------------

 NO OUTPUT CONTROL FOR STRESS PERIOD   22   TIME STEP   15
 
 SOLVING FOR HEAD 
                                                   Max.-Head-Change                         Max.-Flux-Residual
  Residual-Control   Outer-Iter.   Inner-Iter.     Column Row Layer    Maximum-Head-Change  Column Row Layer    Maximum-Flux-Residual          L2-NORM 
          0                 1           2             5   13     1       0.1091180290E-01       5   13    1         0.5857606266E+00      0.1608742858E+01
          0                 2           2             1    4     1       0.1739445241E-02       5   13    1        -0.4792108167E-01      0.2846993586E+00
          0                 3           2             7    6     1      -0.7248772022E-01       7    6    1        -0.3995031107E+01      0.3996300493E+01
          0                 4           2             7    6     1       0.7476798390E-01       7    6    1         0.4158749747E+01      0.4159096847E+01
     PET DIFF ERROR     6    7   -0.1765691549E-08    0.2499999985E-07
     PET DIFF ERROR     6    8   -0.1765691472E-08    0.2499999985E-07
          0                 5           2             7    6     1      -0.6541906631E-01       7    6    1        -0.3672133744E+01      0.3672249307E+01
          0                 6           2             7    6     1       0.6350356806E-01       7    6    1         0.3597122978E+01      0.3597183712E+01
     PET DIFF ERROR     6    7   -0.2533948484E-08    0.2499999985E-07
     PET DIFF ERROR     6    8   -0.2533948438E-08    0.2499999985E-07
          0                 7           2             7    6     1      -0.6137342991E-01       7    6    1        -0.3508275058E+01      0.3508325554E+01
          0                 8           2             7    6     1       0.6014076022E-01       7    6    1         0.3469157509E+01      0.3469207365E+01
     PET DIFF ERROR     6    7   -0.2747059179E-08    0.2499999985E-07
     PET DIFF ERROR     6    8   -0.2747059157E-08    0.2499999985E-07
          0                 9           2             7    6     1      -0.5736003930E-01       7    6    1        -0.3338973238E+01      0.3339017650E+01
          0                10           2             7    6     1       0.5621522877E-01       7    6    1         0.3302107850E+01      0.3302153696E+01
                                                   Max.-Head-Change                         Max.-Flux-Residual
  Residual-Control   Outer-Iter.   Inner-Iter.     Column Row Layer    Maximum-Head-Change  Column Row Layer    Maximum-Flux-Residual          L2-NORM 
          0                11           2             7    6     1       0.1657970310E-02       7    6    1         0.9698903538E-01      0.9828358947E-01
          0                12           2             7    6     1       0.3662533424E-03       7    6    1         0.2141183584E-01      0.2179272196E-01
          0                13           1             7    6     1       0.8095932720E-04       7    6    1         0.4730068903E-02      0.4838180539E-02
          0                14           1             7    6     1       0.1790731027E-04       7    6    1         0.1045589330E-02      0.1075488677E-02
          0                15           1             7    6     1       0.3963418505E-05       7    6    1         0.2312771660E-03      0.2394310307E-03

    ------------------------------------------------
       NWT REQUIRED           15 OUTER ITERATIONS 
       AND A TOTAL OF         27 INNER ITERATIONS.
    ------------------------------------------------

 NO OUTPUT CONTROL FOR STRESS PERIOD   22   TIME STEP   16
 
 SOLVING FOR HEAD 
     PET DIFF ERROR     6    7   -0.2927344525E-08    0.2499999985E-07
     PET DIFF ERROR     6    8   -0.2927344461E-08    0.2499999985E-07
                                                   Max.-Head-Change                         Max.-Flux-Residual
  Residual-Control   Outer-Iter.   Inner-Iter.     Column Row Layer    Maximum-Head-Change  Column Row Layer    Maximum-Flux-Residual          L2-NORM 
          0                 1           2             7    6     1      -0.2141522995E-01       7    6    1        -0.1177602897E+01      0.1950062754E+01
          0                 2           2             7    6     1       0.2382869371E-01       7    6    1         0.1312004368E+01      0.1341603304E+01
          0                 3           2             7    6     1      -0.6837799075E-01       7    6    1        -0.3803242952E+01      0.3804590664E+01
          0                 4           2             7    6     1       0.7108021107E-01       7    6    1         0.3989781142E+01      0.3990249887E+01
     PET DIFF ERROR     6    7   -0.2465602260E-08    0.2499999985E-07
     PET DIFF ERROR     6    8   -0.2465602222E-08    0.2499999985E-07
          0                 5           2             7    6     1      -0.5604264116E-01       7    6    1        -0.3174630016E+01      0.3174754951E+01
          0                 6           2             7    6     1       0.5399567922E-01       7    6    1         0.3086492189E+01      0.3086546470E+01
          0                 7           2             7    6     1       0.5801646473E-03       7    6    1         0.3278578538E-01      0.3636729007E-01
          0                 8           2             7    6     1       0.1406424630E-03       7    6    1         0.7962532065E-02      0.8715118595E-02
          0                 9           1             7    6     1       0.2823341082E-04       7    6    1         0.1598047728E-02      0.1884432166E-02
          0                10           1             7    6     1       0.5669350529E-05       7    6    1         0.3208097537E-03      0.4882213730E-03

    ------------------------------------------------
       NWT REQUIRED           10 OUTER ITERATIONS 
       AND A TOTAL OF         18 INNER ITERATIONS.
    ------------------------------------------------

 NO OUTPUT CONTROL FOR STRESS PERIOD   22   TIME STEP   17
 
 SOLVING FOR HEAD 
                                                   Max.-Head-Change                         Max.-Flux-Residual
  Residual-Control   Outer-Iter.   Inner-Iter.     Column Row Layer    Maximum-Head-Change  Column Row Layer    Maximum-Flux-Residual          L2-NORM 
          0                 1           2             5   13     1       0.1023766291E-01       5   13    1         0.5496954171E+00      0.1521567039E+01
          0                 2           2             1    4     1       0.1737638354E-02       4   13    1         0.4680177021E-01      0.2843430050E+00
          0                 3           2             7    6     1      -0.7243615133E-01       7    6    1        -0.3992193307E+01      0.3993451144E+01
          0                 4           2             7    6     1       0.7471628834E-01       7    6    1         0.4155878907E+01      0.4156678687E+01
          0                 5           2             7    6     1      -0.1770260924E-02       7    6    1        -0.9988812149E-01      0.1041591004E+00
          0                 6           2             7    6     1      -0.3226834464E-03       7    6    1        -0.1818936958E-01      0.2036206247E-01
          0                 7           1             7    6     1      -0.5889716428E-04       7    6    1        -0.3316837888E-02      0.5081339123E-02
          0                 8           1             1    4     1       0.1428364760E-04       7    6    1        -0.6056174684E-03      0.1813548979E-02
          0                 9           1             1    4     1       0.6416731876E-05       1    4    1         0.1667096937E-03      0.7719149456E-03

    ------------------------------------------------
       NWT REQUIRED            9 OUTER ITERATIONS 
       AND A TOTAL OF         15 INNER ITERATIONS.
    ------------------------------------------------

 NO OUTPUT CONTROL FOR STRESS PERIOD   22   TIME STEP   18
 
 SOLVING FOR HEAD 
                                                   Max.-Head-Change                         Max.-Flux-Residual
  Residual-Control   Outer-Iter.   Inner-Iter.     Column Row Layer    Maximum-Head-Change  Column Row Layer    Maximum-Flux-Residual          L2-NORM 
          0                 1           2             5   13     1       0.9914139098E-02       5   13    1         0.5323570332E+00      0.1483845571E+01
          0                 2           2             1    4     1       0.1736696461E-02       4   13    1         0.4883927028E-01      0.2843081191E+00
          0                 3           2             7    6     1      -0.7248801198E-01       7    6    1        -0.3995053423E+01      0.3996305536E+01
          0                 4           2             7    6     1       0.7477416530E-01       7    6    1         0.4159100399E+01      0.4159434468E+01
     PET DIFF ERROR     6    7   -0.1831149513E-08    0.2499999985E-07
     PET DIFF ERROR     6    8   -0.1831149387E-08    0.2499999985E-07
          0                 5           2             7    6     1      -0.6601531439E-01       7    6    1        -0.3705603882E+01      0.3705717656E+01
          0                 6           2             7    6     1       0.6413537729E-01       7    6    1         0.3632917607E+01      0.3632978805E+01
     PET DIFF ERROR     6    7   -0.1811498902E-08    0.2499999985E-07
     PET DIFF ERROR     6    8   -0.1811498878E-08    0.2499999985E-07
          0                 7           2             7    6     1      -0.6193419733E-01       7    6    1        -0.3540336174E+01      0.3540387124E+01
          0                 8           2             7    6     1       0.6068719989E-01       7    6    1         0.3500683770E+01      0.3500731411E+01
     PET DIFF ERROR     6    7   -0.2250729682E-08    0.2499999985E-07
     PET DIFF ERROR     6    8   -0.2250729687E-08    0.2499999985E-07
          0                 9           2             7    6     1      -0.5849504535E-01       7    6    1        -0.3405043939E+01      0.3405088277E+01
          0                10           2             7    6     1       0.5735371098E-01       7    6    1         0.3368988573E+01      0.3369033033E+01
     PET DIFF ERROR     6    7   -0.2041733978E-08    0.2499999985E-07
     PET DIFF ERROR     6    8   -0.2041733935E-08    0.2499999985E-07
                                                   Max.-Head-Change                         Max.-Flux-Residual
  Residual-Control   Outer-Iter.   Inner-Iter.     Column Row Layer    Maximum-Head-Change  Column Row Layer    Maximum-Flux-Residual          L2-NORM 
          0                11           2             7    6     1      -0.5489210029E-01       7    6    1        -0.3253780381E+01      0.3253820780E+01
          0                12           2             7    6     1       0.5385185195E-01       7    6    1         0.3221108951E+01      0.3221148571E+01
          0                13           2             7    6     1       0.2401440259E-02       7    6    1         0.1432548856E+00      0.1440439496E+00
          0                14           2             7    6     1       0.5631823158E-03       7    6    1         0.3357584206E-01      0.3385511510E-01
          0                15           2             7    6     1       0.1321512283E-03       7    6    1         0.7873915075E-02      0.7965947550E-02
          0                16           1             7    6     1       0.3102677609E-04       7    6    1         0.1847563247E-02      0.1876414679E-02
          0                17           1             7    6     1       0.7288594507E-05       7    6    1         0.4337616183E-03      0.4424882986E-03

    ------------------------------------------------
       NWT REQUIRED           17 OUTER ITERATIONS 
       AND A TOTAL OF         32 INNER ITERATIONS.
    ------------------------------------------------

 NO OUTPUT CONTROL FOR STRESS PERIOD   22   TIME STEP   19
 
 SOLVING FOR HEAD 
     PET DIFF ERROR     6    7   -0.2788167480E-08    0.2499999985E-07
     PET DIFF ERROR     6    8   -0.2788167418E-08    0.2499999985E-07
                                                   Max.-Head-Change                         Max.-Flux-Residual
  Residual-Control   Outer-Iter.   Inner-Iter.     Column Row Layer    Maximum-Head-Change  Column Row Layer    Maximum-Flux-Residual          L2-NORM 
          0                 1           2             7    6     1      -0.2142829323E-01       7    6    1        -0.1178308432E+01      0.1859920590E+01
          0                 2           2             7    6     1       0.2383191683E-01       7    6    1         0.1312185796E+01      0.1341691607E+01
          0                 3           2             7    6     1      -0.6851039599E-01       7    6    1        -0.3810612332E+01      0.3811940713E+01
          0                 4           2             7    6     1       0.7122161037E-01       7    6    1         0.3997724338E+01      0.3998197978E+01
     PET DIFF ERROR     6    7   -0.1786783850E-08    0.2499999985E-07
     PET DIFF ERROR     6    8   -0.1786783805E-08    0.2499999985E-07
          0                 5           2             7    6     1      -0.5574946747E-01       7    6    1        -0.3158031160E+01      0.3158156339E+01
          0                 6           2             7    6     1       0.5367785468E-01       7    6    1         0.3068329303E+01      0.3068380447E+01
          0                 7           2             7    6     1       0.6118302543E-03       7    6    1         0.3459802188E-01      0.3796779568E-01
          0                 8           2             7    6     1       0.1229828971E-03       7    6    1         0.6953477950E-02      0.7797358645E-02
          0                 9           1             7    6     1       0.2472427536E-04       7    6    1         0.1397697245E-02      0.1712910715E-02
          0                10           1             7    6     1       0.4971377140E-05       7    6    1         0.2809898454E-03      0.4609193963E-03

    ------------------------------------------------
       NWT REQUIRED           10 OUTER ITERATIONS 
       AND A TOTAL OF         18 INNER ITERATIONS.
    ------------------------------------------------

 NO OUTPUT CONTROL FOR STRESS PERIOD   22   TIME STEP   20
 
 SOLVING FOR HEAD 
     PET DIFF ERROR     6    7   -0.4180359404E-09    0.2499999985E-07
     PET DIFF ERROR     6    8   -0.4180358911E-09    0.2499999985E-07
                                                   Max.-Head-Change                         Max.-Flux-Residual
  Residual-Control   Outer-Iter.   Inner-Iter.     Column Row Layer    Maximum-Head-Change  Column Row Layer    Maximum-Flux-Residual          L2-NORM 
          0                 1           2             7    6     1      -0.2143283856E-01       7    6    1        -0.1178526461E+01      0.1834415830E+01
          0                 2           2             7    6     1       0.2383285934E-01       7    6    1         0.1312245036E+01      0.1341988758E+01
          0                 3           2             7    6     1      -0.7046337788E-01       7    6    1        -0.3919228678E+01      0.3920515157E+01
          0                 4           2             7    6     1       0.7331148855E-01       7    6    1         0.4115033655E+01      0.4115777545E+01
          0                 5           2             7    6     1      -0.1171647261E-02       7    6    1        -0.6687306979E-01      0.7281614855E-01
          0                 6           2             7    6     1      -0.2214885961E-03       7    6    1        -0.1262530770E-01      0.1558052856E-01
          0                 7           1             7    6     1      -0.4194057340E-04       7    6    1        -0.2387876752E-02      0.4517335293E-02
          0                 8           1             1    4     1       0.1426007588E-04       7    6    1        -0.4523646721E-03      0.1760058450E-02
          0                 9           1             1    4     1       0.6406089901E-05       1    4    1         0.1664343313E-03      0.7648431837E-03

    ------------------------------------------------
       NWT REQUIRED            9 OUTER ITERATIONS 
       AND A TOTAL OF         15 INNER ITERATIONS.
    ------------------------------------------------

 NO OUTPUT CONTROL FOR STRESS PERIOD   22   TIME STEP   21
 
 SOLVING FOR HEAD 
                                                   Max.-Head-Change                         Max.-Flux-Residual
  Residual-Control   Outer-Iter.   Inner-Iter.     Column Row Layer    Maximum-Head-Change  Column Row Layer    Maximum-Flux-Residual          L2-NORM 
          0                 1           2             5   13     1       0.9004596572E-02       5   13    1         0.4835859209E+00      0.1386051777E+01
          0                 2           2             1    4     1       0.1733966182E-02       4   13    1         0.5395569792E-01      0.2842728153E+00
          0                 3           2             7    6     1      -0.7248835048E-01       7    6    1        -0.3995077030E+01      0.3996314052E+01
          0                 4           2             7    6     1       0.7478028642E-01       7    6    1         0.4159447468E+01      0.4159797603E+01
     PET DIFF ERROR     6    7   -0.1628417319E-08    0.2499999985E-07
     PET DIFF ERROR     6    8   -0.1628417295E-08    0.2499999985E-07
          0                 5           2             7    6     1      -0.6466882906E-01       7    6    1        -0.3630038836E+01      0.3630154484E+01
          0                 6           2             7    6     1       0.6270700718E-01       7    6    1         0.3552013361E+01      0.3552072827E+01
     PET DIFF ERROR     6    7   -0.2757843183E-08    0.2499999985E-07
     PET DIFF ERROR     6    8   -0.2757843127E-08    0.2499999985E-07
          0                 7           2             7    6     1      -0.6070999794E-01       7    6    1        -0.3470361864E+01      0.3470411612E+01
          0                 8           2             7    6     1       0.5949719281E-01       7    6    1         0.3432045359E+01      0.3432095650E+01
     PET DIFF ERROR     6    7   -0.2491791532E-08    0.2499999985E-07
     PET DIFF ERROR     6    8   -0.2491791492E-08    0.2499999985E-07
          0                 9           2             7    6     1      -0.5653165732E-01       7    6    1        -0.3290764538E+01      0.3290808592E+01
          0                10           2             7    6     1       0.5539424588E-01       7    6    1         0.3253893471E+01      0.3253937393E+01
                                                   Max.-Head-Change                         Max.-Flux-Residual
  Residual-Control   Outer-Iter.   Inner-Iter.     Column Row Layer    Maximum-Head-Change  Column Row Layer    Maximum-Flux-Residual          L2-NORM 
          0                11           2             7    6     1       0.1663085849E-02       7    6    1         0.9729562927E-01      0.9854792630E-01
          0                12           2             7    6     1       0.3672339077E-03       7    6    1         0.2147081069E-01      0.2184076087E-01
          0                13           1             7    6     1       0.8114291729E-04       7    6    1         0.4741166482E-02      0.4846484976E-02
          0                14           1             7    6     1       0.1794055438E-04       7    6    1         0.1047614172E-02      0.1076805889E-02
          0                15           1             7    6     1       0.3969139630E-05       7    6    1         0.2316299365E-03      0.2396035359E-03

    ------------------------------------------------
       NWT REQUIRED           15 OUTER ITERATIONS 
       AND A TOTAL OF         27 INNER ITERATIONS.
    ------------------------------------------------

 NO OUTPUT CONTROL FOR STRESS PERIOD   22   TIME STEP   22
 
 SOLVING FOR HEAD 
     PET DIFF ERROR     6    7   -0.3329777602E-08    0.2499999985E-07
     PET DIFF ERROR     6    8   -0.3329777591E-08    0.2499999985E-07
                                                   Max.-Head-Change                         Max.-Flux-Residual
  Residual-Control   Outer-Iter.   Inner-Iter.     Column Row Layer    Maximum-Head-Change  Column Row Layer    Maximum-Flux-Residual          L2-NORM 
          0                 1           2             7    6     1      -0.2144163712E-01       7    6    1        -0.1179004589E+01      0.1791467954E+01
          0                 2           2             7    6     1       0.2383506102E-01       7    6    1         0.1312368518E+01      0.1341766864E+01
     PET DIFF ERROR     6    7   -0.9989793011E-08    0.2499999985E-07
     PET DIFF ERROR     6    8   -0.9989792788E-08    0.2499999985E-07
          0                 3           2             7    6     1      -0.6800953485E-01       7    6    1        -0.3782761793E+01      0.3784084390E+01
          0                 4           2             7    6     1       0.7068529213E-01       7    6    1         0.3967626896E+01      0.3968045985E+01
     PET DIFF ERROR     6    7   -0.3277306980E-08    0.2499999985E-07
     PET DIFF ERROR     6    8   -0.3277306950E-08    0.2499999985E-07
          0                 5           2             7    6     1      -0.5719581622E-01       7    6    1        -0.3239950816E+01      0.3240070770E+01
          0                 6           2             7    6     1       0.5523469645E-01       7    6    1         0.3157327767E+01      0.3157386934E+01
          0                 7           2             7    6     1       0.4614349723E-03       7    6    1         0.2599181739E-01      0.3054859256E-01
          0                 8           2             7    6     1       0.1784152847E-03       7    6    1         0.1012096462E-01      0.1072917925E-01
          0                 9           1             7    6     1       0.3571528400E-04       7    6    1         0.2025285212E-02      0.2259978857E-02
          0                10           1             7    6     1       0.7152518263E-05       7    6    1         0.4054470658E-03      0.5466923596E-03

    ------------------------------------------------
       NWT REQUIRED           10 OUTER ITERATIONS 
       AND A TOTAL OF         18 INNER ITERATIONS.
    ------------------------------------------------

 NO OUTPUT CONTROL FOR STRESS PERIOD   22   TIME STEP   23
 
 SOLVING FOR HEAD 
     PET DIFF ERROR     6    7   -0.5883217787E-09    0.2499999985E-07
     PET DIFF ERROR     6    8   -0.5883217294E-09    0.2499999985E-07
                                                   Max.-Head-Change                         Max.-Flux-Residual
  Residual-Control   Outer-Iter.   Inner-Iter.     Column Row Layer    Maximum-Head-Change  Column Row Layer    Maximum-Flux-Residual          L2-NORM 
          0                 1           2             7    6     1      -0.2144561394E-01       7    6    1        -0.1179220697E+01      0.1772570388E+01
          0                 2           2             7    6     1       0.2383612723E-01       7    6    1         0.1312428328E+01      0.1342217946E+01
          0                 3           2             7    6     1      -0.7034057616E-01       7    6    1        -0.3912405209E+01      0.3913681190E+01
          0                 4           2             7    6     1       0.7317977666E-01       7    6    1         0.4107647232E+01      0.4108372756E+01
          0                 5           2             7    6     1      -0.1169332282E-02       7    6    1        -0.6674116215E-01      0.7265821427E-01
          0                 6           2             7    6     1      -0.2210057899E-03       7    6    1        -0.1259783732E-01      0.1553299812E-01
          0                 7           1             7    6     1      -0.4184056979E-04       7    6    1        -0.2382193724E-02      0.4498198541E-02
          0                 8           1             1    4     1       0.1423615126E-04       7    6    1        -0.4511954844E-03      0.1751732799E-02
          0                 9           1             1    4     1       0.6395291357E-05       1    4    1         0.1661548602E-03      0.7612054680E-03

    ------------------------------------------------
       NWT REQUIRED            9 OUTER ITERATIONS 
       AND A TOTAL OF         15 INNER ITERATIONS.
    ------------------------------------------------

 NO OUTPUT CONTROL FOR STRESS PERIOD   22   TIME STEP   24
 
 SOLVING FOR HEAD 
                                                   Max.-Head-Change                         Max.-Flux-Residual
  Residual-Control   Outer-Iter.   Inner-Iter.     Column Row Layer    Maximum-Head-Change  Column Row Layer    Maximum-Flux-Residual          L2-NORM 
          0                 1           2             5   13     1       0.8177768899E-02       5   13    1         0.4392001008E+00      0.1310461813E+01
          0                 2           2             1    4     1       0.1731124667E-02       4   13    1         0.5789633709E-01      0.2846561105E+00
          0                 3           2             7    6     1      -0.7248859580E-01       7    6    1        -0.3995096788E+01      0.3996321826E+01
          0                 4           2             7    6     1       0.7478604335E-01       7    6    1         0.4159774414E+01      0.4160130173E+01
     PET DIFF ERROR     6    7   -0.2186955327E-08    0.2499999985E-07
     PET DIFF ERROR     6    8   -0.2186955284E-08    0.2499999985E-07
          0                 5           2             7    6     1      -0.6412356762E-01       7    6    1        -0.3599442185E+01      0.3599558387E+01
          0                 6           2             7    6     1       0.6212832964E-01       7    6    1         0.3519239905E+01      0.3519300495E+01
     PET DIFF ERROR     6    7   -0.3073172592E-08    0.2499999985E-07
     PET DIFF ERROR     6    8   -0.3073172584E-08    0.2499999985E-07
          0                 7           2             7    6     1      -0.5968948386E-01       7    6    1        -0.3412035255E+01      0.3412084970E+01
          0                 8           2             7    6     1       0.5846884522E-01       7    6    1         0.3372731448E+01      0.3372782581E+01
     PET DIFF ERROR     6    7   -0.8371168270E-09    0.2499999985E-07
     PET DIFF ERROR     6    8   -0.8371167765E-09    0.2499999985E-07
          0                 9           2             7    6     1      -0.5524557852E-01       7    6    1        -0.3215908161E+01      0.3215951723E+01
          0                10           2             7    6     1       0.5412084319E-01       7    6    1         0.3179098282E+01      0.3179136791E+01
                                                   Max.-Head-Change                         Max.-Flux-Residual
  Residual-Control   Outer-Iter.   Inner-Iter.     Column Row Layer    Maximum-Head-Change  Column Row Layer    Maximum-Flux-Residual          L2-NORM 
          0                11           2             7    6     1       0.1680856740E-02       7    6    1         0.9834824688E-01      0.9953172905E-01
          0                12           2             7    6     1       0.3710426171E-03       7    6    1         0.2169630240E-01      0.2204950860E-01
          0                13           1             7    6     1       0.8195921152E-04       7    6    1         0.4789471409E-02      0.4890787192E-02
          0                14           1             7    6     1       0.1811550012E-04       7    6    1         0.1057961802E-02      0.1086212692E-02
          0                15           1             7    6     1       0.4006631476E-05       7    6    1         0.2338464303E-03      0.2416145231E-03

    ------------------------------------------------
       NWT REQUIRED           15 OUTER ITERATIONS 
       AND A TOTAL OF         27 INNER ITERATIONS.
    ------------------------------------------------

 NO OUTPUT CONTROL FOR STRESS PERIOD   22   TIME STEP   25
 
 SOLVING FOR HEAD 
     PET DIFF ERROR     6    7   -0.3344776390E-08    0.2499999985E-07
     PET DIFF ERROR     6    8   -0.3344776384E-08    0.2499999985E-07
                                                   Max.-Head-Change                         Max.-Flux-Residual
  Residual-Control   Outer-Iter.   Inner-Iter.     Column Row Layer    Maximum-Head-Change  Column Row Layer    Maximum-Flux-Residual          L2-NORM 
          0                 1           2             7    6     1      -0.2145307448E-01       7    6    1        -0.1179625468E+01      0.1739561543E+01
          0                 2           2             7    6     1       0.2383822314E-01       7    6    1         0.1312546022E+01      0.1341974834E+01
          0                 3           2             7    6     1      -0.6799963381E-01       7    6    1        -0.3782217074E+01      0.3783527713E+01
          0                 4           2             7    6     1       0.7067441077E-01       7    6    1         0.3967022566E+01      0.3967455367E+01
     PET DIFF ERROR     6    7   -0.2968472740E-08    0.2499999985E-07
     PET DIFF ERROR     6    8   -0.2968472702E-08    0.2499999985E-07
          0                 5           2             7    6     1      -0.5646553112E-01       7    6    1        -0.3198594035E+01      0.3198715128E+01
          0                 6           2             7    6     1       0.5446802689E-01       7    6    1         0.3113508010E+01      0.3113564681E+01
          0                 7           2             7    6     1       0.5721660022E-03       7    6    1         0.3232586166E-01      0.3599836312E-01
          0                 8           2             7    6     1       0.1150948156E-03       7    6    1         0.6501996436E-02      0.7405027439E-02
          0                 9           1             7    6     1       0.2315385358E-04       7    6    1         0.1307886032E-02      0.1637955741E-02
          0                10           1             7    6     1       0.4658401228E-05       7    6    1         0.2631049399E-03      0.4477558873E-03

    ------------------------------------------------
       NWT REQUIRED           10 OUTER ITERATIONS 
       AND A TOTAL OF         18 INNER ITERATIONS.
    ------------------------------------------------

 NO OUTPUT CONTROL FOR STRESS PERIOD   22   TIME STEP   26
 
 SOLVING FOR HEAD 
                                                   Max.-Head-Change                         Max.-Flux-Residual
  Residual-Control   Outer-Iter.   Inner-Iter.     Column Row Layer    Maximum-Head-Change  Column Row Layer    Maximum-Flux-Residual          L2-NORM 
          0                 1           2             5   13     1       0.7671170131E-02       5   13    1         0.4119840292E+00      0.1268219665E+01
          0                 2           2             1    4     1       0.1729159991E-02       4   13    1         0.6006622853E-01      0.2848339282E+00
          0                 3           2             7    6     1      -0.6287768358E-01       7    6    1        -0.3465436865E+01      0.3466840555E+01
          0                 4           2             7    6     1       0.6441042755E-01       7    6    1         0.3582663689E+01      0.3583589204E+01
          0                 5           2             7    6     1      -0.1161333221E-02       7    6    1        -0.6563778600E-01      0.7104641277E-01
          0                 6           2             7    6     1      -0.2110681379E-03       7    6    1        -0.1191646260E-01      0.1487838885E-01
          0                 7           1             7    6     1      -0.3841607718E-04       7    6    1        -0.2166692071E-02      0.4364660376E-02
          0                 8           1             1    4     1       0.1421187023E-04       7    6    1        -0.3945094193E-03      0.1729956516E-02
          0                 9           1             1    4     1       0.6384333241E-05       1    4    1         0.1658712243E-03      0.7563835552E-03

    ------------------------------------------------
       NWT REQUIRED            9 OUTER ITERATIONS 
       AND A TOTAL OF         15 INNER ITERATIONS.
    ------------------------------------------------

 NO OUTPUT CONTROL FOR STRESS PERIOD   22   TIME STEP   27
 
 SOLVING FOR HEAD 
                                                   Max.-Head-Change                         Max.-Flux-Residual
  Residual-Control   Outer-Iter.   Inner-Iter.     Column Row Layer    Maximum-Head-Change  Column Row Layer    Maximum-Flux-Residual          L2-NORM 
          0                 1           2             6   13     1       0.7657821362E-02       5   13    1         0.4092778612E+00      0.1301435550E+01
          0                 2           2             1    4     1       0.1728239402E-02       1    4    1         0.4490062108E-01      0.2742733802E+00
          0                 3           2             1    4     1       0.7763820188E-03       1    4    1         0.2017088752E-01      0.9827733225E-01
          0                 4           2             1    4     1       0.3487752829E-03       1    4    1         0.9061421714E-02      0.4233855831E-01
          0                 5           2             1    4     1       0.1566803623E-03       1    4    1         0.4070674089E-02      0.1881181960E-01
          0                 6           1             1    4     1       0.7038531265E-04       1    4    1         0.1828668369E-02      0.8400079100E-02
          0                 7           1             1    4     1       0.3161899808E-04       1    4    1         0.8214898019E-03      0.3754987160E-02
          0                 8           1             1    4     1       0.1420406727E-04       1    4    1         0.3690353564E-03      0.1679285520E-02
          0                 9           1             1    4     1       0.6380810928E-05       1    4    1         0.1657800756E-03      0.7512013052E-03

    ------------------------------------------------
       NWT REQUIRED            9 OUTER ITERATIONS 
       AND A TOTAL OF         14 INNER ITERATIONS.
    ------------------------------------------------

 NO OUTPUT CONTROL FOR STRESS PERIOD   22   TIME STEP   28
 
 SOLVING FOR HEAD 
                                                   Max.-Head-Change                         Max.-Flux-Residual
  Residual-Control   Outer-Iter.   Inner-Iter.     Column Row Layer    Maximum-Head-Change  Column Row Layer    Maximum-Flux-Residual          L2-NORM 
          0                 1           2             6   13     1       0.7455592168E-02       6   13    1         0.3978862330E+00      0.1281073099E+01
          0                 2           2             1    4     1       0.1727248106E-02       1    4    1         0.4487496022E-01      0.2730030876E+00
          0                 3           2             1    4     1       0.7759347267E-03       1    4    1         0.2015930839E-01      0.9809725204E-01
          0                 4           2             1    4     1       0.3485734660E-03       1    4    1         0.9056197039E-02      0.4227083788E-01
          0                 5           2             1    4     1       0.1565893077E-03       1    4    1         0.4068316759E-02      0.1878303804E-01
          0                 6           1             1    4     1       0.7034423366E-04       1    4    1         0.1827604817E-02      0.8387664916E-02
          0                 7           1             1    4     1       0.3160046585E-04       1    4    1         0.8210099792E-03      0.3749583309E-02
          0                 8           1             1    4     1       0.1419570730E-04       1    4    1         0.3688188945E-03      0.1676909818E-02
          0                 9           1             1    4     1       0.6377039503E-05       1    4    1         0.1656824238E-03      0.7501636021E-03

    ------------------------------------------------
       NWT REQUIRED            9 OUTER ITERATIONS 
       AND A TOTAL OF         14 INNER ITERATIONS.
    ------------------------------------------------

 NO OUTPUT CONTROL FOR STRESS PERIOD   22   TIME STEP   29
 
 SOLVING FOR HEAD 
                                                   Max.-Head-Change                         Max.-Flux-Residual
  Residual-Control   Outer-Iter.   Inner-Iter.     Column Row Layer    Maximum-Head-Change  Column Row Layer    Maximum-Flux-Residual          L2-NORM 
          0                 1           2             5   13     1       0.7011958319E-02       5   13    1         0.3764427971E+00      0.1201375153E+01
          0                 2           2             1    4     1       0.1726252457E-02       1    4    1         0.4484918830E-01      0.2671240858E+00
          0                 3           2             1    4     1       0.7754854180E-03       1    4    1         0.2014767825E-01      0.9761312904E-01
          0                 4           2             1    4     1       0.3483707040E-03       1    4    1         0.9050948673E-02      0.4217374858E-01
          0                 5           2             1    4     1       0.1564978063E-03       1    4    1         0.4065948305E-02      0.1874789302E-01
          0                 6           1             1    4     1       0.7030294058E-04       1    4    1         0.1826535985E-02      0.8372908863E-02
          0                 7           1             1    4     1       0.3158183158E-04       1    4    1         0.8205276414E-03      0.3743191577E-02
          0                 8           1             1    4     1       0.1418729782E-04       1    4    1         0.3686012263E-03      0.1674118583E-02
          0                 9           1             1    4     1       0.6373244568E-05       1    4    1         0.1655841973E-03      0.7489392709E-03

    ------------------------------------------------
       NWT REQUIRED            9 OUTER ITERATIONS 
       AND A TOTAL OF         14 INNER ITERATIONS.
    ------------------------------------------------

 NO OUTPUT CONTROL FOR STRESS PERIOD   22   TIME STEP   30



 STREAM LISTING     PERIOD     22   STEP       30

 LAYER ROW COL. STREAM  RCH.  FLOW INTO     FLOW TO   FLOW OUT OF   OVRLND.     DIRECT     STREAM       STREAM     STREAM     STREAM   STREAMBED  STREAMBED
                SEG.NO.  NO.  STRM. RCH.    AQUIFER    STRM. RCH.    RUNOFF     PRECIP       ET          HEAD       DEPTH      WIDTH   CONDCTNC.   GRADIENT

   1    1    1     1     1    4.0274E+00  8.8097E-02   3.9393E+00  0.000E+00  0.000E+00  0.000E+00  1.09375E+03  6.990E-01  5.293E+00  2.382E-02  1.233E+00
   1    2    2     1     2    3.9393E+00  1.3548E-01   3.8038E+00  0.000E+00  0.000E+00  0.000E+00  1.08875E+03  6.921E-01  5.242E+00  3.670E-02  1.231E+00
   1    3    3     1     3    3.8038E+00  1.1461E-01   3.6892E+00  0.000E+00  0.000E+00  0.000E+00  1.08310E+03  6.842E-01  5.185E+00  3.111E-02  1.228E+00
   1    3    4     1     4    3.6892E+00  1.0476E-01   3.5844E+00  0.000E+00  0.000E+00  0.000E+00  1.07809E+03  6.772E-01  5.133E+00  2.849E-02  1.226E+00
   1    4    5     2     1    1.5844E+00  2.5113E-01   1.3333E+00  0.000E+00  0.000E+00  0.000E+00  1.07215E+03  2.196E-01  1.200E+01  7.800E-02  1.073E+00
   1    5    6     2     2    1.3333E+00  1.9193E-01   1.1414E+00  0.000E+00  0.000E+00  0.000E+00  1.06671E+03  1.989E-01  1.200E+01  6.000E-02  1.066E+00
   1    6    6     2     3    1.1414E+00  1.9079E-01   9.5059E-01  0.000E+00  0.000E+00  0.000E+00  1.06197E+03  1.798E-01  1.200E+01  6.000E-02  1.060E+00
   1    7    6     2     4    9.5059E-01  1.8957E-01   7.6102E-01  0.000E+00  0.000E+00  0.000E+00  1.05723E+03  1.594E-01  1.200E+01  6.000E-02  1.053E+00
   1    8    6     2     5    7.6102E-01  1.8824E-01   5.7279E-01  0.000E+00  0.000E+00  0.000E+00  1.05250E+03  1.373E-01  1.200E+01  6.000E-02  1.046E+00
   1    3    5     3     1    2.0000E+00  2.8252E-01   1.7175E+00  0.000E+00  0.000E+00  0.000E+00  1.07555E+03  1.909E+00  9.636E+00  7.227E-02  1.955E+00
   1    3    6     3     2    1.7175E+00  2.4905E-01   1.4684E+00  0.000E+00  0.000E+00  0.000E+00  1.07264E+03  1.727E+00  8.909E+00  6.682E-02  1.864E+00
   1    3    7     3     3    1.4684E+00  1.9718E-01   1.2712E+00  0.000E+00  0.000E+00  0.000E+00  1.06987E+03  1.555E+00  8.218E+00  5.547E-02  1.777E+00
   1    4    8     3     4    1.2712E+00  2.2567E-01   1.0456E+00  0.000E+00  0.000E+00  0.000E+00  1.06682E+03  1.364E+00  7.455E+00  6.709E-02  1.682E+00
   1    5    8     3     5    1.0456E+00  1.5790E-01   8.8768E-01  0.000E+00  0.000E+00  0.000E+00  1.06362E+03  1.164E+00  6.655E+00  4.991E-02  1.582E+00
   1    6    8     3     6    8.8768E-01  5.5980E-02   8.3170E-01  0.000E+00  0.000E+00  0.000E+00  1.06158E+03  1.036E+00  6.145E+00  1.844E-02  1.518E+00
   1    5   10     4     1    1.0000E+01  9.0919E-02   9.9091E+00  0.000E+00  0.000E+00  0.000E+00  1.07836E+03  6.368E-01  1.000E+01  2.500E-02  1.212E+00
   1    5    9     4     2    9.9091E+00  1.8158E-01   9.7275E+00  0.000E+00  0.000E+00  0.000E+00  1.07154E+03  6.315E-01  1.000E+01  5.000E-02  1.211E+00
   1    6    8     4     3    9.7275E+00  1.2689E-01   9.6006E+00  0.000E+00  0.000E+00  0.000E+00  1.06381E+03  6.256E-01  1.000E+01  3.500E-02  1.209E+00
   1    6    8     5     1    1.0432E+01  2.2686E-01   1.0205E+01  0.000E+00  0.000E+00  0.000E+00  1.05868E+03  6.790E-01  1.542E+01  6.166E-02  1.226E+00
   1    7    7     5     2    1.0205E+01  2.7894E-01   9.9265E+00  0.000E+00  0.000E+00  0.000E+00  1.05417E+03  6.732E-01  1.519E+01  7.594E-02  1.224E+00
   1    8    7     5     3    9.9265E+00  1.9221E-01   9.7343E+00  0.000E+00  0.000E+00  0.000E+00  1.04992E+03  6.676E-01  1.497E+01  5.241E-02  1.223E+00
   1    8    6     5     4    9.7343E+00  1.3577E-01   9.5985E+00  0.000E+00  0.000E+00  0.000E+00  1.04691E+03  6.637E-01  1.482E+01  3.706E-02  1.221E+00
   1    9    6     6     1    1.0171E+01  2.2243E-01   9.9489E+00  0.000E+00  0.000E+00  0.000E+00  1.04343E+03  7.072E-01  1.200E+01  6.000E-02  1.236E+00
   1   10    7     6     2    9.9489E+00  2.2187E-01   9.7270E+00  0.000E+00  0.000E+00  0.000E+00  1.03888E+03  6.978E-01  1.200E+01  6.000E-02  1.233E+00
   1   11    7     6     3    9.7270E+00  2.2130E-01   9.5057E+00  0.000E+00  0.000E+00  0.000E+00  1.03432E+03  6.883E-01  1.200E+01  6.000E-02  1.229E+00
   1   12    7     6     4    9.5057E+00  2.2073E-01   9.2850E+00  0.000E+00  0.000E+00  0.000E+00  1.02977E+03  6.788E-01  1.200E+01  6.000E-02  1.226E+00
   1   13    7     6     5    9.2850E+00 -1.0992E-01   9.3949E+00  0.000E+00  0.000E+00  0.000E+00  1.02659E+03  6.764E-01  1.200E+01  2.400E-01 -1.527E-01
   1   14    9     7     1    1.5000E+02  1.1647E+00   1.4884E+02  0.000E+00  0.000E+00  0.000E+00  1.03987E+03  2.288E+00  5.530E+01  5.593E-01  6.941E-01
   1   13    8     7     2    1.4884E+02  1.6589E+00   1.4718E+02  0.000E+00  0.000E+00  0.000E+00  1.03478E+03  2.281E+00  5.526E+01  6.148E-01  8.994E-01
   1   13    7     7     3    1.4718E+02  1.4791E+00   1.4570E+02  0.000E+00  0.000E+00  0.000E+00  1.02969E+03  2.272E+00  5.523E+01  5.585E-01  8.827E-01
   1   13    6     8     1    1.5509E+02  8.5173E-01   1.5424E+02  0.000E+00  0.000E+00  0.000E+00  1.02472E+03  2.849E+00  4.132E+01  4.210E-01  6.743E-01
   1   13    5     8     2    1.5424E+02  1.0564E-01   1.5413E+02  0.000E+00  0.000E+00  0.000E+00  1.01847E+03  2.846E+00  4.127E+01  4.205E-01  8.374E-02
   1   13    4     8     3    1.5413E+02 -2.7807E+00   1.5692E+02  0.000E+00  0.000E+00  0.000E+00  1.01223E+03  2.855E+00  4.140E+01  4.219E+00 -2.197E-01
   1   13    3     8     4    1.5692E+02 -3.6980E+00   1.6061E+02  0.000E+00  0.000E+00  0.000E+00  1.00600E+03  2.877E+00  4.172E+01  4.252E+00 -2.899E-01
   1   13    2     8     5    1.6061E+02 -2.0877E+00   1.6270E+02  0.000E+00  0.000E+00  0.000E+00  9.99772E+02  2.897E+00  4.201E+01  4.281E+00 -1.626E-01
   1   13    1     8     6    1.6270E+02 -1.2595E+00   1.6396E+02  0.000E+00  0.000E+00  0.000E+00  9.94783E+02  2.908E+00  4.217E+01  2.578E+00 -1.628E-01
   1    6    8     9     1    0.0000E+00  0.0000E+00   0.0000E+00  0.000E+00  0.000E+00  0.000E+00  1.07850E+03  0.000E+00  4.000E+00  0.000E+00  1.000E+00





UNSATURATED ZONE PACKAGE VOLUMETRIC BUDGET FOR  TIME STEP    30 STRESS PERIOD   22
  ------------------------------------------------------------------------------



     CUMULATIVE VOLUMES      L**3       RATES FOR THIS TIME STEP      L**3/T
     ------------------                 ------------------------

           IN:                                      IN:
           ---                                      ---
        INFILTRATION =    44597671.4802          INFILTRATION =       0.0000E+00

          OUT:                                     OUT:
          ----                                     ----
              UZF ET =   571719376.0452                UZF ET =       0.0000E+00
        UZF RECHARGE =  1236412806.5806          UZF RECHARGE =          17.5451

            IN - OUT = -1763534511.1456              IN - OUT =         -17.5451

          STORAGE:                                 STORAGE:
          --------                                 --------
      STORAGE CHANGE = -1763508303.2275        STORAGE CHANGE =         -17.5451

 PERCENT DISCREPANCY IS DIFFERENCE BETWEEN IN-OUT MINUS CHANGE IN STORAGE
 DIVIDED BY THE AVERAGE OF IN AND OUT TIMES 100

 PERCENT DISCREPANCY =          -0.00     PERCENT DISCREPANCY =           0.00






1
  VOLUMETRIC BUDGET FOR ENTIRE MODEL AT END OF TIME STEP   30, STRESS PERIOD  22
  ------------------------------------------------------------------------------

     CUMULATIVE VOLUMES      L**3       RATES FOR THIS TIME STEP      L**3/T
     ------------------                 ------------------------

           IN:                                      IN:
           ---                                      ---
             STORAGE     =    78067416.0000               STORAGE     =           0.7881
       CONSTANT HEAD     =           0.0000         CONSTANT HEAD     =           0.0000
               WELLS     =           0.0000                 WELLS     =           0.0000
     HEAD DEP BOUNDS     =    15168848.0000       HEAD DEP BOUNDS     =           0.2741
      STREAM LEAKAGE     =   607623616.0000        STREAM LEAKAGE     =          10.0025
        UZF RECHARGE     =  1236412800.0000          UZF RECHARGE     =          17.5451
               GW ET     =           0.0000                 GW ET     =           0.0000
     SURFACE LEAKAGE     =           0.0000       SURFACE LEAKAGE     =           0.0000
    SUPPLEMENTARY WELLS  =           0.0000      SUPPLEMENTARY WELLS  =           0.0000

                TOTAL IN =  1937272704.0000                  TOTAL IN =          28.6098

          OUT:                                     OUT:
          ----                                     ----
             STORAGE     =  1141350656.0000               STORAGE     =          14.0206
       CONSTANT HEAD     =           0.0000         CONSTANT HEAD     =           0.0000
               WELLS     =           0.0000                 WELLS     =           0.0000
     HEAD DEP BOUNDS     =    15869524.0000       HEAD DEP BOUNDS     =           0.2763
      STREAM LEAKAGE     =   596732608.0000        STREAM LEAKAGE     =           9.9358
        UZF RECHARGE     =           0.0000          UZF RECHARGE     =           0.0000
               GW ET     =   183101504.0000                 GW ET     =           4.3750
     SURFACE LEAKAGE     =           0.0000       SURFACE LEAKAGE     =           0.0000
    SUPPLEMENTARY WELLS  =      324965.9062      SUPPLEMENTARY WELLS  =           0.0000

               TOTAL OUT =  1937379200.0000                 TOTAL OUT =          28.6077

                IN - OUT =     -106496.0000                  IN - OUT =       2.0618E-03

     PERCENT DISCREPANCY =          -0.01         PERCENT DISCREPANCY =           0.01






         TIME SUMMARY AT END OF TIME STEP   30 IN STRESS PERIOD   22
                    SECONDS     MINUTES      HOURS       DAYS        YEARS
                    -----------------------------------------------------------
   TIME STEP LENGTH  87600.      1460.0      24.333      1.0139     2.77588E-03
 STRESS PERIOD TIME 2.62800E+06  43800.      730.00      30.417     8.32763E-02
         TOTAL TIME 5.52744E+07 9.21240E+05  15354.      639.75      1.7515    
1
1
                            STRESS PERIOD NO.   23, LENGTH =   2628000.    
                            -----------------------------------------------

                              NUMBER OF TIME STEPS =    30

                               MULTIPLIER FOR DELT =     1.000

                            INITIAL TIME STEP SIZE =   87600.00    

 WELL NO.  LAYER   ROW   COL   STRESS RATE         
 --------------------------------------------------
      1      1      6      4       0.000    
      2      1      6      7       0.000    
      3      1      7      4       0.000    
      4      1      7      5       0.000    
      5      1      8      4       0.000    
      6      1      8      5       0.000    
      7      1      9      4       0.000    
      8      1      9      5       0.000    
      9      1     10      4       0.000    
     10      1     10      5       0.000    

     10 WELLS

 REUSING NON-PARAMETER GHB CELLS FROM LAST STRESS PERIOD

      2 GHB CELLS

 REUSING STREAM SEGMENT DATA FROM LAST STRESS PERIOD



            AREAL INFILTRATION RATE
 READING ON UNIT   19 WITH FORMAT: (10F4.0)            

            1           2           3           4           5           6           7           8           9          10
 ........................................................................................................................
   1    0.000       0.000       0.000       0.000       0.000       0.000       0.000       0.000       0.000       0.000    
   2    0.000       0.000       0.000       0.000       0.000       0.000       0.000       0.000       0.000       0.000    
   3    0.000       0.000       0.000       0.000       0.000       0.000       0.000       0.000       0.000       0.000    
   4    0.000       0.000       0.000       0.000       0.000       0.000       0.000       0.000       0.000       0.000    
   5    0.000       0.000       0.000       0.000       0.000       0.000       0.000       0.000       0.000       0.000    
   6    0.000       0.000       0.000       0.000       0.000       0.000       0.000       0.000       0.000       0.000    
   7    0.000       0.000       0.000       0.000       0.000       0.000       0.000       0.000       0.000       0.000    
   8    0.000       0.000       0.000       0.000       0.000       0.000       0.000       0.000       0.000       0.000    
   9    0.000       0.000       0.000       0.000       0.000       0.000       0.000       0.000       0.000       0.000    
  10    0.000       0.000       0.000       0.000       0.000       0.000       0.000       0.000       0.000       0.000    
  11    0.000       0.000       0.000       0.000       0.000       0.000       0.000       0.000       0.000       0.000    
  12    0.000       0.000       0.000       0.000       0.000       0.000       0.000       0.000       0.000       0.000    
  13    0.000       0.000       0.000       0.000       0.000       0.000       0.000       0.000       0.000       0.000    
  14    0.000       0.000       0.000       0.000       0.000       0.000       0.000       0.000       0.000       0.000    
  15    0.000       0.000       0.000       0.000       0.000       0.000       0.000       0.000       0.000       0.000    

                  ET RATE =  1.000000E-10

 USING ET EXTINCTION DEPTH FROM PREVIOUS STRESS PERIOD. CURRENT PERIOD IS:      23

 USING EXTINCTION WATER CONTENT FROM PREVIOUS STRESS PERIOD. CURRENT PERIOD IS:      23

 PROCESSING AGO STRESS PERIOD DATA

 READING AGO STRESS PERIOD DATA

 READING IRRIGATION STREAM

 READING IRRIGATION WELL

 READING SUPPLEMENTAL WEL

 END PROCESSING AGO STRESS PERIOD DATA OPTIONS
 
 SOLVING FOR HEAD 
                                                   Max.-Head-Change                         Max.-Flux-Residual
  Residual-Control   Outer-Iter.   Inner-Iter.     Column Row Layer    Maximum-Head-Change  Column Row Layer    Maximum-Flux-Residual          L2-NORM 
          0                 1           2             6   13     1       0.1849047459E-01       5   13    1         0.9854525030E+00      0.2437492935E+01
          0                 2           2             6   13     1      -0.1832149470E-02       5   13    1        -0.9847128169E-01      0.3381927559E+00
          0                 3           2             1    4     1       0.7750337217E-03       1    4    1         0.2013598924E-01      0.9906540987E-01
          0                 4           2             1    4     1       0.3481668065E-03       1    4    1         0.9045672142E-02      0.4209842082E-01
          0                 5           2             1    4     1       0.1564057677E-03       1    4    1         0.4063566464E-02      0.1870803263E-01
          0                 6           1             1    4     1       0.7026139538E-04       1    4    1         0.1825460832E-02      0.8356180551E-02
          0                 7           1             1    4     1       0.3156307850E-04       1    4    1         0.8200423316E-03      0.3736115761E-02
          0                 8           1             1    4     1       0.1417883381E-04       1    4    1         0.3683821731E-03      0.1671095107E-02
          0                 9           1             1    4     1       0.6369424122E-05       1    4    1         0.1654853199E-03      0.7476386852E-03

    ------------------------------------------------
       NWT REQUIRED            9 OUTER ITERATIONS 
       AND A TOTAL OF         14 INNER ITERATIONS.
    ------------------------------------------------

 NO OUTPUT CONTROL FOR STRESS PERIOD   23   TIME STEP    1
 
 SOLVING FOR HEAD 
                                                   Max.-Head-Change                         Max.-Flux-Residual
  Residual-Control   Outer-Iter.   Inner-Iter.     Column Row Layer    Maximum-Head-Change  Column Row Layer    Maximum-Flux-Residual          L2-NORM 
          0                 1           2             6   13     1       0.1805486445E-01       6   13    1         0.9609535347E+00      0.2348110981E+01
          0                 2           2             6   13     1      -0.1788940741E-02       6   13    1        -0.9601907640E-01      0.3316646064E+00
          0                 3           2             1    4     1       0.7745800843E-03       1    4    1         0.2012424782E-01      0.9868015601E-01
          0                 4           2             1    4     1       0.3479620793E-03       1    4    1         0.9040373152E-02      0.4200404103E-01
          0                 5           2             1    4     1       0.1563133749E-03       1    4    1         0.4061175020E-02      0.1866989977E-01
          0                 6           1             1    4     1       0.7021969987E-04       1    4    1         0.1824381590E-02      0.8340182624E-02
          0                 7           1             1    4     1       0.3154426215E-04       1    4    1         0.8195552839E-03      0.3729326741E-02
          0                 8           1             1    4     1       0.1417034229E-04       1    4    1         0.3681623786E-03      0.1668188816E-02
          0                 9           1             1    4     1       0.6365592671E-05       1    4    1         0.1653861393E-03      0.7463923999E-03

    ------------------------------------------------
       NWT REQUIRED            9 OUTER ITERATIONS 
       AND A TOTAL OF         14 INNER ITERATIONS.
    ------------------------------------------------

 NO OUTPUT CONTROL FOR STRESS PERIOD   23   TIME STEP    2
 
 SOLVING FOR HEAD 
                                                   Max.-Head-Change                         Max.-Flux-Residual
  Residual-Control   Outer-Iter.   Inner-Iter.     Column Row Layer    Maximum-Head-Change  Column Row Layer    Maximum-Flux-Residual          L2-NORM 
          0                 1           2             6   13     1       0.1763055831E-01       6   13    1         0.9383222962E+00      0.2265644828E+01
          0                 2           2             6   13     1      -0.1746850021E-02       6   13    1        -0.9375821159E-01      0.3257520801E+00
          0                 3           2             1    4     1       0.7741245613E-03       1    4    1         0.2011245618E-01      0.9832522574E-01
          0                 4           2             1    4     1       0.3477565308E-03       1    4    1         0.9035052270E-02      0.4191287725E-01
          0                 5           2             1    4     1       0.1562206257E-03       1    4    1         0.4058774054E-02      0.1863247315E-01
          0                 6           1             1    4     1       0.7017784929E-04       1    4    1         0.1823298207E-02      0.8324318611E-02
          0                 7           1             1    4     1       0.3152537901E-04       1    4    1         0.8190664446E-03      0.3722542717E-02
          0                 8           1             1    4     1       0.1416182226E-04       1    4    1         0.3679418076E-03      0.1665268183E-02
          0                 9           1             1    4     1       0.6361748214E-05       1    4    1         0.1652866141E-03      0.7451196982E-03

    ------------------------------------------------
       NWT REQUIRED            9 OUTER ITERATIONS 
       AND A TOTAL OF         14 INNER ITERATIONS.
    ------------------------------------------------

 NO OUTPUT CONTROL FOR STRESS PERIOD   23   TIME STEP    3
 
 SOLVING FOR HEAD 
                                                   Max.-Head-Change                         Max.-Flux-Residual
  Residual-Control   Outer-Iter.   Inner-Iter.     Column Row Layer    Maximum-Head-Change  Column Row Layer    Maximum-Flux-Residual          L2-NORM 
          0                 1           2             6   13     1       0.1721711006E-01       6   13    1         0.9162714120E+00      0.2188983910E+01
          0                 2           2             1    4     1       0.1722222771E-02       6   13    1        -0.9155529213E-01      0.3203358429E+00
          0                 3           2             1    4     1       0.7736666863E-03       1    4    1         0.2010060639E-01      0.9800518306E-01
          0                 4           2             1    4     1       0.3475498646E-03       1    4    1         0.9029703640E-02      0.4183295349E-01
          0                 5           2             1    4     1       0.1561273476E-03       1    4    1         0.4056359913E-02      0.1860025768E-01
          0                 6           1             1    4     1       0.7013574985E-04       1    4    1         0.1822208600E-02      0.8309669385E-02
          0                 7           1             1    4     1       0.3150637858E-04       1    4    1         0.8185746696E-03      0.3716212835E-02
          0                 8           1             1    4     1       0.1415324720E-04       1    4    1         0.3677198622E-03      0.1662519954E-02
          0                 9           1             1    4     1       0.6357878496E-05       1    4    1         0.1651864527E-03      0.7439243872E-03

    ------------------------------------------------
       NWT REQUIRED            9 OUTER ITERATIONS 
       AND A TOTAL OF         14 INNER ITERATIONS.
    ------------------------------------------------

 NO OUTPUT CONTROL FOR STRESS PERIOD   23   TIME STEP    4
 
 SOLVING FOR HEAD 
                                                   Max.-Head-Change                         Max.-Flux-Residual
  Residual-Control   Outer-Iter.   Inner-Iter.     Column Row Layer    Maximum-Head-Change  Column Row Layer    Maximum-Flux-Residual          L2-NORM 
          0                 1           2             6   13     1       0.1681441747E-01       6   13    1         0.8947953754E+00      0.2117922295E+01
          0                 2           2             1    4     1       0.1721203918E-02       6   13    1        -0.8940971356E-01      0.3152964073E+00
          0                 3           2             1    4     1       0.7732069126E-03       1    4    1         0.2008870521E-01      0.9763683538E-01
          0                 4           2             1    4     1       0.3473423885E-03       1    4    1         0.9024333053E-02      0.4171747169E-01
          0                 5           2             1    4     1       0.1560337247E-03       1    4    1         0.4053936408E-02      0.1854984097E-01
          0                 6           1             1    4     1       0.7009350384E-04       1    4    1         0.1821115005E-02      0.8288504488E-02
          0                 7           1             1    4     1       0.3148731612E-04       1    4    1         0.8180812019E-03      0.3706920241E-02
          0                 8           1             1    4     1       0.1414464538E-04       1    4    1         0.3674971952E-03      0.1658425497E-02
          0                 9           1             1    4     1       0.6353997773E-05       1    4    1         0.1650859883E-03      0.7421220280E-03

    ------------------------------------------------
       NWT REQUIRED            9 OUTER ITERATIONS 
       AND A TOTAL OF         14 INNER ITERATIONS.
    ------------------------------------------------

 NO OUTPUT CONTROL FOR STRESS PERIOD   23   TIME STEP    5
 
 SOLVING FOR HEAD 
                                                   Max.-Head-Change                         Max.-Flux-Residual
  Residual-Control   Outer-Iter.   Inner-Iter.     Column Row Layer    Maximum-Head-Change  Column Row Layer    Maximum-Flux-Residual          L2-NORM 
          0                 1           2             6   13     1       0.1642188904E-01       6   13    1         0.8738660310E+00      0.2051465634E+01
          0                 2           2             1    4     1       0.1720180248E-02       6   13    1        -0.8731880698E-01      0.3106374495E+00
          0                 3           2             1    4     1       0.7727448950E-03       1    4    1         0.2007674741E-01      0.9734134328E-01
          0                 4           2             1    4     1       0.3471338709E-03       1    4    1         0.9018936126E-02      0.4163978021E-01
          0                 5           2             1    4     1       0.1559396197E-03       1    4    1         0.4051500682E-02      0.1851784780E-01
          0                 6           1             1    4     1       0.7005103524E-04       1    4    1         0.1820015757E-02      0.8274810106E-02
          0                 7           1             1    4     1       0.3146815086E-04       1    4    1         0.8175851239E-03      0.3700993965E-02
          0                 8           1             1    4     1       0.1413599755E-04       1    4    1         0.3672733323E-03      0.1655839205E-02
          0                 9           1             1    4     1       0.6350095040E-05       1    4    1         0.1649849600E-03      0.7409768560E-03

    ------------------------------------------------
       NWT REQUIRED            9 OUTER ITERATIONS 
       AND A TOTAL OF         14 INNER ITERATIONS.
    ------------------------------------------------

 NO OUTPUT CONTROL FOR STRESS PERIOD   23   TIME STEP    6
 
 SOLVING FOR HEAD 
                                                   Max.-Head-Change                         Max.-Flux-Residual
  Residual-Control   Outer-Iter.   Inner-Iter.     Column Row Layer    Maximum-Head-Change  Column Row Layer    Maximum-Flux-Residual          L2-NORM 
          0                 1           2             6   13     1       0.1603941341E-01       6   13    1         0.8534727148E+00      0.1989884195E+01
          0                 2           2             1    4     1       0.1719151863E-02       6   13    1        -0.8528160010E-01      0.3064250557E+00
          0                 3           2             1    4     1       0.7722807727E-03       1    4    1         0.2006473464E-01      0.9707531318E-01
          0                 4           2             1    4     1       0.3469244139E-03       1    4    1         0.9013514652E-02      0.4156686979E-01
          0                 5           2             1    4     1       0.1558450952E-03       1    4    1         0.4049054000E-02      0.1848733252E-01
          0                 6           1             1    4     1       0.7000837930E-04       1    4    1         0.1818911620E-02      0.8261660707E-02
          0                 7           1             1    4     1       0.3144890281E-04       1    4    1         0.8170868701E-03      0.3695284108E-02
          0                 8           1             1    4     1       0.1412731194E-04       1    4    1         0.3670484924E-03      0.1653346413E-02
          0                 9           1             1    4     1       0.6346175800E-05       1    4    1         0.1648835044E-03      0.7398838440E-03

    ------------------------------------------------
       NWT REQUIRED            9 OUTER ITERATIONS 
       AND A TOTAL OF         14 INNER ITERATIONS.
    ------------------------------------------------

 NO OUTPUT CONTROL FOR STRESS PERIOD   23   TIME STEP    7
 
 SOLVING FOR HEAD 
                                                   Max.-Head-Change                         Max.-Flux-Residual
  Residual-Control   Outer-Iter.   Inner-Iter.     Column Row Layer    Maximum-Head-Change  Column Row Layer    Maximum-Flux-Residual          L2-NORM 
          0                 1           2             6   13     1       0.1566665220E-01       6   13    1         0.8335945857E+00      0.1932586344E+01
          0                 2           2             1    4     1       0.1718119424E-02       6   13    1        -0.8329551018E-01      0.3025493661E+00
          0                 3           2             1    4     1       0.7718149889E-03       1    4    1         0.2005267532E-01      0.9682247560E-01
          0                 4           2             1    4     1       0.3467142816E-03       1    4    1         0.9008074123E-02      0.4149575751E-01
          0                 5           2             1    4     1       0.1557502992E-03       1    4    1         0.4046599582E-02      0.1845760017E-01
          0                 6           1             1    4     1       0.6996561556E-04       1    4    1         0.1817804372E-02      0.8248869925E-02
          0                 7           1             1    4     1       0.3142961175E-04       1    4    1         0.8165873774E-03      0.3689733433E-02
          0                 8           1             1    4     1       0.1411861008E-04       1    4    1         0.3668231761E-03      0.1650922501E-02
          0                 9           1             1    4     1       0.6342250558E-05       1    4    1         0.1647818695E-03      0.7388201356E-03

    ------------------------------------------------
       NWT REQUIRED            9 OUTER ITERATIONS 
       AND A TOTAL OF         14 INNER ITERATIONS.
    ------------------------------------------------

 NO OUTPUT CONTROL FOR STRESS PERIOD   23   TIME STEP    8
 
 SOLVING FOR HEAD 
                                                   Max.-Head-Change                         Max.-Flux-Residual
  Residual-Control   Outer-Iter.   Inner-Iter.     Column Row Layer    Maximum-Head-Change  Column Row Layer    Maximum-Flux-Residual          L2-NORM 
          0                 1           2             6   13     1       0.1530340036E-01       6   13    1         0.8142235275E+00      0.1879194986E+01
          0                 2           2             1    4     1       0.1717082318E-02       6   13    1        -0.8136028012E-01      0.2989733849E+00
          0                 3           2             1    4     1       0.7713469739E-03       1    4    1         0.2004056088E-01      0.9657904339E-01
          0                 4           2             1    4     1       0.3465030873E-03       1    4    1         0.9002607272E-02      0.4142515448E-01
          0                 5           2             1    4     1       0.1556550004E-03       1    4    1         0.4044132661E-02      0.1842803440E-01
          0                 6           1             1    4     1       0.6992261447E-04       1    4    1         0.1816691209E-02      0.8236154606E-02
          0                 7           1             1    4     1       0.3141020938E-04       1    4    1         0.8160850933E-03      0.3684215707E-02
          0                 8           1             1    4     1       0.1410985569E-04       1    4    1         0.3665965394E-03      0.1648512025E-02
          0                 9           1             1    4     1       0.6338300804E-05       1    4    1         0.1646796131E-03      0.7377639851E-03

    ------------------------------------------------
       NWT REQUIRED            9 OUTER ITERATIONS 
       AND A TOTAL OF         14 INNER ITERATIONS.
    ------------------------------------------------

 NO OUTPUT CONTROL FOR STRESS PERIOD   23   TIME STEP    9
 
 SOLVING FOR HEAD 
                                                   Max.-Head-Change                         Max.-Flux-Residual
  Residual-Control   Outer-Iter.   Inner-Iter.     Column Row Layer    Maximum-Head-Change  Column Row Layer    Maximum-Flux-Residual          L2-NORM 
          0                 1           2             6   13     1       0.1494950128E-01       6   13    1         0.7953514194E+00      0.1829110064E+01
          0                 2           2             1    4     1       0.1716040313E-02       6   13    1        -0.7947461817E-01      0.2952752080E+00
          0                 3           2             1    4     1       0.7708766886E-03       1    4    1         0.2002838892E-01      0.9609346118E-01
          0                 4           2             1    4     1       0.3462908436E-03       1    4    1         0.8997113773E-02      0.4123094132E-01
          0                 5           2             1    4     1       0.1555592171E-03       1    4    1         0.4041653416E-02      0.1833952238E-01
          0                 6           1             1    4     1       0.6987939028E-04       1    4    1         0.1815572360E-02      0.8195695892E-02
          0                 7           1             1    4     1       0.3139070472E-04       1    4    1         0.8155801948E-03      0.3665743880E-02
          0                 8           1             1    4     1       0.1410105453E-04       1    4    1         0.3663687040E-03      0.1640085724E-02
          0                 9           1             1    4     1       0.6334329541E-05       1    4    1         0.1645768060E-03      0.7339248061E-03

    ------------------------------------------------
       NWT REQUIRED            9 OUTER ITERATIONS 
       AND A TOTAL OF         14 INNER ITERATIONS.
    ------------------------------------------------

 NO OUTPUT CONTROL FOR STRESS PERIOD   23   TIME STEP   10
 
 SOLVING FOR HEAD 
                                                   Max.-Head-Change                         Max.-Flux-Residual
  Residual-Control   Outer-Iter.   Inner-Iter.     Column Row Layer    Maximum-Head-Change  Column Row Layer    Maximum-Flux-Residual          L2-NORM 
          0                 1           2             6   13     1       0.1460470151E-01       6   13    1         0.7769645607E+00      0.1782447107E+01
          0                 2           2             1    4     1       0.1714927890E-02       6   13    1        -0.7763772030E-01      0.2920783488E+00
          0                 3           2             1    4     1       0.7703749808E-03       1    4    1         0.2001539609E-01      0.9579461217E-01
          0                 4           2             1    4     1       0.3460645784E-03       1    4    1         0.8991253984E-02      0.4112892400E-01
          0                 5           2             1    4     1       0.1554571768E-03       1    4    1         0.4039010722E-02      0.1829603168E-01
          0                 6           1             1    4     1       0.6983337410E-04       1    4    1         0.1814380577E-02      0.8176907713E-02
          0                 7           1             1    4     1       0.3136995351E-04       1    4    1         0.8150427521E-03      0.3657585440E-02
          0                 8           1             1    4     1       0.1409169738E-04       1    4    1         0.3661263510E-03      0.1636533519E-02
          0                 9           1             1    4     1       0.6330110418E-05       1    4    1         0.1644675251E-03      0.7323718337E-03

    ------------------------------------------------
       NWT REQUIRED            9 OUTER ITERATIONS 
       AND A TOTAL OF         14 INNER ITERATIONS.
    ------------------------------------------------

 NO OUTPUT CONTROL FOR STRESS PERIOD   23   TIME STEP   11
 
 SOLVING FOR HEAD 
                                                   Max.-Head-Change                         Max.-Flux-Residual
  Residual-Control   Outer-Iter.   Inner-Iter.     Column Row Layer    Maximum-Head-Change  Column Row Layer    Maximum-Flux-Residual          L2-NORM 
          0                 1           2             6   13     1       0.1426874758E-01       6   13    1         0.7590441021E+00      0.1740430294E+01
          0                 2           2             1    4     1       0.1713877685E-02       6   13    1        -0.7584719960E-01      0.2893277049E+00
          0                 3           2             1    4     1       0.7699011412E-03       1    4    1         0.2000312905E-01      0.9557267688E-01
          0                 4           2             1    4     1       0.3458507952E-03       1    4    1         0.8985719274E-02      0.4105778758E-01
          0                 5           2             1    4     1       0.1553607277E-03       1    4    1         0.4036513640E-02      0.1826554994E-01
          0                 6           1             1    4     1       0.6978986228E-04       1    4    1         0.1813254014E-02      0.8163628455E-02
          0                 7           1             1    4     1       0.3135032480E-04       1    4    1         0.8145345211E-03      0.3651771601E-02
          0                 8           1             1    4     1       0.1408284245E-04       1    4    1         0.3658970740E-03      0.1633979779E-02
          0                 9           1             1    4     1       0.6326116395E-05       1    4    1         0.1643640973E-03      0.7312436166E-03

    ------------------------------------------------
       NWT REQUIRED            9 OUTER ITERATIONS 
       AND A TOTAL OF         14 INNER ITERATIONS.
    ------------------------------------------------

 NO OUTPUT CONTROL FOR STRESS PERIOD   23   TIME STEP   12
 
 SOLVING FOR HEAD 
                                                   Max.-Head-Change                         Max.-Flux-Residual
  Residual-Control   Outer-Iter.   Inner-Iter.     Column Row Layer    Maximum-Head-Change  Column Row Layer    Maximum-Flux-Residual          L2-NORM 
          0                 1           2             6   13     1       0.1394194681E-01       6   13    1         0.7416025015E+00      0.1700367419E+01
          0                 2           2             1    4     1       0.1712823212E-02       6   13    1        -0.7410455217E-01      0.2866971326E+00
          0                 3           2             1    4     1       0.7694254062E-03       1    4    1         0.1999081227E-01      0.9536922574E-01
          0                 4           2             1    4     1       0.3456361725E-03       1    4    1         0.8980162505E-02      0.4099463976E-01
          0                 5           2             1    4     1       0.1552639065E-03       1    4    1         0.4034006774E-02      0.1823876754E-01
          0                 6           1             1    4     1       0.6974618589E-04       1    4    1         0.1812123119E-02      0.8151984981E-02
          0                 7           1             1    4     1       0.3133062280E-04       1    4    1         0.8140243696E-03      0.3646669667E-02
          0                 8           1             1    4     1       0.1407395575E-04       1    4    1         0.3656669562E-03      0.1631733716E-02
          0                 9           1             1    4     1       0.6322107615E-05       1    4    1         0.1642602965E-03      0.7302600283E-03

    ------------------------------------------------
       NWT REQUIRED            9 OUTER ITERATIONS 
       AND A TOTAL OF         14 INNER ITERATIONS.
    ------------------------------------------------

 NO OUTPUT CONTROL FOR STRESS PERIOD   23   TIME STEP   13
 
 SOLVING FOR HEAD 
                                                   Max.-Head-Change                         Max.-Flux-Residual
  Residual-Control   Outer-Iter.   Inner-Iter.     Column Row Layer    Maximum-Head-Change  Column Row Layer    Maximum-Flux-Residual          L2-NORM 
          0                 1           2             6   13     1       0.1362366521E-01       6   13    1         0.7246162456E+00      0.1662499361E+01
          0                 2           2             1    4     1       0.1711698147E-02       6   13    1        -0.7240748089E-01      0.2842355276E+00
          0                 3           2             1    4     1       0.7689179925E-03       1    4    1         0.1997767177E-01      0.9516737805E-01
          0                 4           2             1    4     1       0.3454073331E-03       1    4    1         0.8974236057E-02      0.4092890570E-01
          0                 5           2             1    4     1       0.1551607054E-03       1    4    1         0.4031334011E-02      0.1821058117E-01
          0                 6           1             1    4     1       0.6969964698E-04       1    4    1         0.1810917783E-02      0.8139678336E-02
          0                 7           1             1    4     1       0.3130963623E-04       1    4    1         0.8134808176E-03      0.3641265909E-02
          0                 8           1             1    4     1       0.1406449255E-04       1    4    1         0.3654218512E-03      0.1629348570E-02
          0                 9           1             1    4     1       0.6317840720E-05       1    4    1         0.1641497772E-03      0.7291978481E-03

    ------------------------------------------------
       NWT REQUIRED            9 OUTER ITERATIONS 
       AND A TOTAL OF         14 INNER ITERATIONS.
    ------------------------------------------------

 NO OUTPUT CONTROL FOR STRESS PERIOD   23   TIME STEP   14
 
 SOLVING FOR HEAD 
                                                   Max.-Head-Change                         Max.-Flux-Residual
  Residual-Control   Outer-Iter.   Inner-Iter.     Column Row Layer    Maximum-Head-Change  Column Row Layer    Maximum-Flux-Residual          L2-NORM 
          0                 1           2             6   13     1       0.1331384368E-01       6   13    1         0.7080826721E+00      0.1626945875E+01
          0                 2           2             1    4     1       0.1710635263E-02       6   13    1        -0.7075546095E-01      0.2817513280E+00
          0                 3           2             1    4     1       0.7684384363E-03       1    4    1         0.1996525662E-01      0.9484536233E-01
          0                 4           2             1    4     1       0.3451909748E-03       1    4    1         0.8968634593E-02      0.4080262816E-01
          0                 5           2             1    4     1       0.1550630973E-03       1    4    1         0.4028806858E-02      0.1815444078E-01
          0                 6           1             1    4     1       0.6965561318E-04       1    4    1         0.1809777680E-02      0.8114625261E-02
          0                 7           1             1    4     1       0.3128977266E-04       1    4    1         0.8129664961E-03      0.3630082549E-02
          0                 8           1             1    4     1       0.1405553232E-04       1    4    1         0.3651898412E-03      0.1624356090E-02
          0                 9           1             1    4     1       0.6313798926E-05       1    4    1         0.1640451204E-03      0.7269693650E-03

    ------------------------------------------------
       NWT REQUIRED            9 OUTER ITERATIONS 
       AND A TOTAL OF         14 INNER ITERATIONS.
    ------------------------------------------------

 NO OUTPUT CONTROL FOR STRESS PERIOD   23   TIME STEP   15
 
 SOLVING FOR HEAD 
                                                   Max.-Head-Change                         Max.-Flux-Residual
  Residual-Control   Outer-Iter.   Inner-Iter.     Column Row Layer    Maximum-Head-Change  Column Row Layer    Maximum-Flux-Residual          L2-NORM 
          0                 1           2             6   13     1       0.1301221711E-01       6   13    1         0.6919876529E+00      0.1593808881E+01
          0                 2           2             1    4     1       0.1709568451E-02       6   13    1        -0.6914731183E-01      0.2796429340E+00
          0                 3           2             1    4     1       0.7679572324E-03       1    4    1         0.1995279619E-01      0.9466479456E-01
          0                 4           2             1    4     1       0.3449739284E-03       1    4    1         0.8963014144E-02      0.4074164585E-01
          0                 5           2             1    4     1       0.1549652028E-03       1    4    1         0.4026271783E-02      0.1812802525E-01
          0                 6           1             1    4     1       0.6961146183E-04       1    4    1         0.1808634292E-02      0.8103013204E-02
          0                 7           1             1    4     1       0.3126986057E-04       1    4    1         0.8124508167E-03      0.3624956224E-02
          0                 8           1             1    4     1       0.1404655208E-04       1    4    1         0.3649572719E-03      0.1622086233E-02
          0                 9           1             1    4     1       0.6309749878E-05       1    4    1         0.1639402437E-03      0.7259625912E-03

    ------------------------------------------------
       NWT REQUIRED            9 OUTER ITERATIONS 
       AND A TOTAL OF         14 INNER ITERATIONS.
    ------------------------------------------------

 NO OUTPUT CONTROL FOR STRESS PERIOD   23   TIME STEP   16
 
 SOLVING FOR HEAD 
                                                   Max.-Head-Change                         Max.-Flux-Residual
  Residual-Control   Outer-Iter.   Inner-Iter.     Column Row Layer    Maximum-Head-Change  Column Row Layer    Maximum-Flux-Residual          L2-NORM 
          0                 1           2             6   13     1       0.1271821211E-01       6   13    1         0.6763068433E+00      0.1562687736E+01
          0                 2           2             1    4     1       0.1708431118E-02       6   13    1        -0.6758068986E-01      0.2776877885E+00
          0                 3           2             1    4     1       0.7674443289E-03       1    4    1         0.1993951258E-01      0.9450410752E-01
          0                 4           2             1    4     1       0.3447426332E-03       1    4    1         0.8957023672E-02      0.4068826139E-01
          0                 5           2             1    4     1       0.1548609043E-03       1    4    1         0.4023570390E-02      0.1810480199E-01
          0                 6           1             1    4     1       0.6956443220E-04       1    4    1         0.1807416152E-02      0.8092733472E-02
          0                 7           1             1    4     1       0.3124865466E-04       1    4    1         0.8119015416E-03      0.3620387033E-02
          0                 8           1             1    4     1       0.1403699134E-04       1    4    1         0.3647096092E-03      0.1620050798E-02
          0                 9           1             1    4     1       0.6305438964E-05       1    4    1         0.1638285718E-03      0.7250539512E-03

    ------------------------------------------------
       NWT REQUIRED            9 OUTER ITERATIONS 
       AND A TOTAL OF         14 INNER ITERATIONS.
    ------------------------------------------------

 NO OUTPUT CONTROL FOR STRESS PERIOD   23   TIME STEP   17
 
 SOLVING FOR HEAD 
                                                   Max.-Head-Change                         Max.-Flux-Residual
  Residual-Control   Outer-Iter.   Inner-Iter.     Column Row Layer    Maximum-Head-Change  Column Row Layer    Maximum-Flux-Residual          L2-NORM 
          0                 1           2             6   13     1       0.1243195340E-01       6   13    1         0.6610326186E+00      0.1533300583E+01
          0                 2           2             1    4     1       0.1707356319E-02       6   13    1        -0.6605457947E-01      0.2758372059E+00
          0                 3           2             1    4     1       0.7669594992E-03       1    4    1         0.1992695874E-01      0.9434495131E-01
          0                 4           2             1    4     1       0.3445239421E-03       1    4    1         0.8951360823E-02      0.4063460103E-01
          0                 5           2             1    4     1       0.1547622637E-03       1    4    1         0.4021016079E-02      0.1808144403E-01
          0                 6           1             1    4     1       0.6951994269E-04       1    4    1         0.1806264052E-02      0.8082405388E-02
          0                 7           1             1    4     1       0.3122859000E-04       1    4    1         0.8113819208E-03      0.3615804363E-02
          0                 8           1             1    4     1       0.1402794232E-04       1    4    1         0.3644752589E-03      0.1618014464E-02
          0                 9           1             1    4     1       0.6301357902E-05       1    4    1         0.1637228839E-03      0.7241531688E-03

    ------------------------------------------------
       NWT REQUIRED            9 OUTER ITERATIONS 
       AND A TOTAL OF         14 INNER ITERATIONS.
    ------------------------------------------------

 NO OUTPUT CONTROL FOR STRESS PERIOD   23   TIME STEP   18
 
 SOLVING FOR HEAD 
                                                   Max.-Head-Change                         Max.-Flux-Residual
  Residual-Control   Outer-Iter.   Inner-Iter.     Column Row Layer    Maximum-Head-Change  Column Row Layer    Maximum-Flux-Residual          L2-NORM 
          0                 1           2             6   13     1       0.1215310556E-01       6   13    1         0.6461544062E+00      0.1505764807E+01
          0                 2           2             1    4     1       0.1706211483E-02       5   13    1        -0.6892321755E-01      0.2761008365E+00
          0                 3           2             1    4     1       0.7664433370E-03       1    4    1         0.1991358809E-01      0.9422478897E-01
          0                 4           2             1    4     1       0.3442912341E-03       1    4    1         0.8945332563E-02      0.4058225871E-01
          0                 5           2             1    4     1       0.1546573534E-03       1    4    1         0.4018298299E-02      0.1805853640E-01
          0                 6           1             1    4     1       0.6947264795E-04       1    4    1         0.1805038811E-02      0.8072277144E-02
          0                 7           1             1    4     1       0.3120727003E-04       1    4    1         0.8108295765E-03      0.3611307244E-02
          0                 8           1             1    4     1       0.1401833180E-04       1    4    1         0.3642262685E-03      0.1616305917E-02
          0                 9           1             1    4     1       0.6297025979E-05       1    4    1         0.1636106496E-03      0.7239822717E-03

    ------------------------------------------------
       NWT REQUIRED            9 OUTER ITERATIONS 
       AND A TOTAL OF         14 INNER ITERATIONS.
    ------------------------------------------------

 NO OUTPUT CONTROL FOR STRESS PERIOD   23   TIME STEP   19
 
 SOLVING FOR HEAD 
                                                   Max.-Head-Change                         Max.-Flux-Residual
  Residual-Control   Outer-Iter.   Inner-Iter.     Column Row Layer    Maximum-Head-Change  Column Row Layer    Maximum-Flux-Residual          L2-NORM 
          0                 1           2             6   13     1       0.1187277852E-01       6   13    1         0.6316184617E+00      0.1477628322E+01
          0                 2           2             1    4     1       0.1705129014E-02       6   13    1        -0.6311562511E-01      0.2718926419E+00
          0                 3           2             1    4     1       0.7659550275E-03       1    4    1         0.1990094457E-01      0.9400861326E-01
          0                 4           2             1    4     1       0.3440709650E-03       1    4    1         0.8939629027E-02      0.4052760763E-01
          0                 5           2             1    4     1       0.1545579978E-03       1    4    1         0.4015725539E-02      0.1803535435E-01
          0                 6           1             1    4     1       0.6942783480E-04       1    4    1         0.1803878346E-02      0.8062072537E-02
          0                 7           1             1    4     1       0.3118705831E-04       1    4    1         0.8103061596E-03      0.3606785507E-02
          0                 8           1             1    4     1       0.1400921601E-04       1    4    1         0.3639901966E-03      0.1614000698E-02
          0                 9           1             1    4     1       0.6292914904E-05       1    4    1         0.1635041822E-03      0.7223577466E-03

    ------------------------------------------------
       NWT REQUIRED            9 OUTER ITERATIONS 
       AND A TOTAL OF         14 INNER ITERATIONS.
    ------------------------------------------------

 NO OUTPUT CONTROL FOR STRESS PERIOD   23   TIME STEP   20
 
 SOLVING FOR HEAD 
                                                   Max.-Head-Change                         Max.-Flux-Residual
  Residual-Control   Outer-Iter.   Inner-Iter.     Column Row Layer    Maximum-Head-Change  Column Row Layer    Maximum-Flux-Residual          L2-NORM 
          0                 1           2             6   13     1       0.1159500289E-01       6   13    1         0.6171095937E+00      0.1440352720E+01
          0                 2           2             1    4     1       0.1703976778E-02       6   13    1        -0.6166585572E-01      0.2696423179E+00
          0                 3           2             1    4     1       0.7654356014E-03       1    4    1         0.1988748783E-01      0.9380538254E-01
          0                 4           2             1    4     1       0.3438368181E-03       1    4    1         0.8933562797E-02      0.4045290302E-01
          0                 5           2             1    4     1       0.1544524534E-03       1    4    1         0.4012991024E-02      0.1800057821E-01
          0                 6           1             1    4     1       0.6938026118E-04       1    4    1         0.1802645739E-02      0.8045704984E-02
          0                 7           1             1    4     1       0.3116561579E-04       1    4    1         0.8097505740E-03      0.3599089544E-02
          0                 8           1             1    4     1       0.1399955172E-04       1    4    1         0.3637397797E-03      0.1610389975E-02
          0                 9           1             1    4     1       0.6288559470E-05       1    4    1         0.1633913156E-03      0.7206682483E-03

    ------------------------------------------------
       NWT REQUIRED            9 OUTER ITERATIONS 
       AND A TOTAL OF         14 INNER ITERATIONS.
    ------------------------------------------------

 NO OUTPUT CONTROL FOR STRESS PERIOD   23   TIME STEP   21
 
 SOLVING FOR HEAD 
                                                   Max.-Head-Change                         Max.-Flux-Residual
  Residual-Control   Outer-Iter.   Inner-Iter.     Column Row Layer    Maximum-Head-Change  Column Row Layer    Maximum-Flux-Residual          L2-NORM 
          0                 1           2             6   13     1       0.1131948904E-01       6   13    1         0.6026762382E+00      0.1406719058E+01
          0                 2           2             1    4     1       0.1702821241E-02       6   13    1        -0.6022374163E-01      0.2675546707E+00
          0                 3           2             1    4     1       0.7649146661E-03       1    4    1         0.1987399244E-01      0.9357121264E-01
          0                 4           2             1    4     1       0.3436019821E-03       1    4    1         0.8927478907E-02      0.4036530256E-01
          0                 5           2             1    4     1       0.1543465944E-03       1    4    1         0.4010248447E-02      0.1796218002E-01
          0                 6           1             1    4     1       0.6933254424E-04       1    4    1         0.1801409457E-02      0.8028733183E-02
          0                 7           1             1    4     1       0.3114410799E-04       1    4    1         0.8091933161E-03      0.3591571697E-02
          0                 8           1             1    4     1       0.1398985791E-04       1    4    1         0.3634886041E-03      0.1607056206E-02
          0                 9           1             1    4     1       0.6284190530E-05       1    4    1         0.1632781046E-03      0.7191956897E-03

    ------------------------------------------------
       NWT REQUIRED            9 OUTER ITERATIONS 
       AND A TOTAL OF         14 INNER ITERATIONS.
    ------------------------------------------------

 NO OUTPUT CONTROL FOR STRESS PERIOD   23   TIME STEP   22
 
 SOLVING FOR HEAD 
                                                   Max.-Head-Change                         Max.-Flux-Residual
  Residual-Control   Outer-Iter.   Inner-Iter.     Column Row Layer    Maximum-Head-Change  Column Row Layer    Maximum-Flux-Residual          L2-NORM 
          0                 1           2             6   13     1       0.1104681246E-01       6   13    1         0.5883548056E+00      0.1376277361E+01
          0                 2           2             1    4     1       0.1701728466E-02       6   13    1        -0.5879288769E-01      0.2657616452E+00
          0                 3           2             1    4     1       0.7644218175E-03       1    4    1         0.1986122905E-01      0.9341503272E-01
          0                 4           2             1    4     1       0.3433797146E-03       1    4    1         0.8921722580E-02      0.4031255674E-01
          0                 5           2             1    4     1       0.1542463599E-03       1    4    1         0.4007652450E-02      0.1793927815E-01
          0                 6           1             1    4     1       0.6928734392E-04       1    4    1         0.1800238764E-02      0.8018591625E-02
          0                 7           1             1    4     1       0.3112372644E-04       1    4    1         0.8086654077E-03      0.3587059157E-02
          0                 8           1             1    4     1       0.1398066783E-04       1    4    1         0.3632505602E-03      0.1605042271E-02
          0                 9           1             1    4     1       0.6280046691E-05       1    4    1         0.1631707722E-03      0.7182877359E-03

    ------------------------------------------------
       NWT REQUIRED            9 OUTER ITERATIONS 
       AND A TOTAL OF         14 INNER ITERATIONS.
    ------------------------------------------------

 NO OUTPUT CONTROL FOR STRESS PERIOD   23   TIME STEP   23
 
 SOLVING FOR HEAD 
                                                   Max.-Head-Change                         Max.-Flux-Residual
  Residual-Control   Outer-Iter.   Inner-Iter.     Column Row Layer    Maximum-Head-Change  Column Row Layer    Maximum-Flux-Residual          L2-NORM 
          0                 1           2             6   13     1       0.1077774556E-01       6   13    1         0.5741912632E+00      0.1348759828E+01
          0                 2           2             1    4     1       0.1700565896E-02       6   13    1        -0.5737748674E-01      0.2641698360E+00
          0                 3           2             1    4     1       0.7638977513E-03       1    4    1         0.1984765172E-01      0.9326887009E-01
          0                 4           2             1    4     1       0.3431434848E-03       1    4    1         0.8915602198E-02      0.4026106869E-01
          0                 5           2             1    4     1       0.1541398809E-03       1    4    1         0.4004893630E-02      0.1791677637E-01
          0                 6           1             1    4     1       0.6923935112E-04       1    4    1         0.1798995252E-02      0.8008627473E-02
          0                 7           1             1    4     1       0.3110209559E-04       1    4    1         0.8081049299E-03      0.3582631067E-02
          0                 8           1             1    4     1       0.1397091900E-04       1    4    1         0.3629979542E-03      0.1603069927E-02
          0                 9           1             1    4     1       0.6275653240E-05       1    4    1         0.1630569291E-03      0.7174078331E-03

    ------------------------------------------------
       NWT REQUIRED            9 OUTER ITERATIONS 
       AND A TOTAL OF         14 INNER ITERATIONS.
    ------------------------------------------------

 NO OUTPUT CONTROL FOR STRESS PERIOD   23   TIME STEP   24
 
 SOLVING FOR HEAD 
                                                   Max.-Head-Change                         Max.-Flux-Residual
  Residual-Control   Outer-Iter.   Inner-Iter.     Column Row Layer    Maximum-Head-Change  Column Row Layer    Maximum-Flux-Residual          L2-NORM 
          0                 1           2             6   13     1       0.1051255627E-01       6   13    1         0.5602040104E+00      0.1323592464E+01
          0                 2           2             1    4     1       0.1699400438E-02       6   13    1        -0.5597974760E-01      0.2627097038E+00
          0                 3           2             1    4     1       0.7633724541E-03       1    4    1         0.1983404099E-01      0.9312566614E-01
          0                 4           2             1    4     1       0.3429067321E-03       1    4    1         0.8909467602E-02      0.4020945385E-01
          0                 5           2             1    4     1       0.1540331801E-03       1    4    1         0.4002128770E-02      0.1789418530E-01
          0                 6           1             1    4     1       0.6919126502E-04       1    4    1         0.1797749184E-02      0.7998623567E-02
          0                 7           1             1    4     1       0.3108042547E-04       1    4    1         0.8075433699E-03      0.3578187592E-02
          0                 8           1             1    4     1       0.1396115367E-04       1    4    1         0.3627448885E-03      0.1601092135E-02
          0                 9           1             1    4     1       0.6271253036E-05       1    4    1         0.1629428926E-03      0.7165264201E-03

    ------------------------------------------------
       NWT REQUIRED            9 OUTER ITERATIONS 
       AND A TOTAL OF         14 INNER ITERATIONS.
    ------------------------------------------------

 NO OUTPUT CONTROL FOR STRESS PERIOD   23   TIME STEP   25
 
 SOLVING FOR HEAD 
                                                   Max.-Head-Change                         Max.-Flux-Residual
  Residual-Control   Outer-Iter.   Inner-Iter.     Column Row Layer    Maximum-Head-Change  Column Row Layer    Maximum-Flux-Residual          L2-NORM 
          0                 1           2             6   13     1       0.1025183944E-01       6   13    1         0.5464293043E+00      0.1300555550E+01
          0                 2           2             1    4     1       0.1698298130E-02       6   13    1        -0.5460331792E-01      0.2613633747E+00
          0                 3           2             1    4     1       0.7628754200E-03       1    4    1         0.1982116679E-01      0.9299132266E-01
          0                 4           2             1    4     1       0.3426826284E-03       1    4    1         0.8903662638E-02      0.4016064673E-01
          0                 5           2             1    4     1       0.1539321407E-03       1    4    1         0.3999511446E-02      0.1787263222E-01
          0                 6           1             1    4     1       0.6914571279E-04       1    4    1         0.1796569151E-02      0.7989006200E-02
          0                 7           1             1    4     1       0.3105988960E-04       1    4    1         0.8070113684E-03      0.3573890161E-02
          0                 8           1             1    4     1       0.1395189631E-04       1    4    1         0.3625050561E-03      0.1599390029E-02
          0                 9           1             1    4     1       0.6267079934E-05       1    4    1         0.1628347756E-03      0.7162050754E-03

    ------------------------------------------------
       NWT REQUIRED            9 OUTER ITERATIONS 
       AND A TOTAL OF         14 INNER ITERATIONS.
    ------------------------------------------------

 NO OUTPUT CONTROL FOR STRESS PERIOD   23   TIME STEP   26
 
 SOLVING FOR HEAD 
                                                   Max.-Head-Change                         Max.-Flux-Residual
  Residual-Control   Outer-Iter.   Inner-Iter.     Column Row Layer    Maximum-Head-Change  Column Row Layer    Maximum-Flux-Residual          L2-NORM 
          0                 1           2             6   13     1       0.9995704703E-02       6   13    1         0.5328802948E+00      0.1279379698E+01
          0                 2           2             1    4     1       0.1697126167E-02       6   13    1        -0.5324938513E-01      0.2601347299E+00
          0                 3           2             1    4     1       0.7623471747E-03       1    4    1         0.1980748001E-01      0.9286150767E-01
          0                 4           2             1    4     1       0.3424445399E-03       1    4    1         0.8897493566E-02      0.4011271592E-01
          0                 5           2             1    4     1       0.1538248353E-03       1    4    1         0.3996730971E-02      0.1785147850E-01
          0                 6           1             1    4     1       0.6909735257E-04       1    4    1         0.1795316009E-02      0.7979573059E-02
          0                 7           1             1    4     1       0.3103809592E-04       1    4    1         0.8064466141E-03      0.3569674116E-02
          0                 8           1             1    4     1       0.1394207520E-04       1    4    1         0.3622505469E-03      0.1597284621E-02
          0                 9           1             1    4     1       0.6262654469E-05       1    4    1         0.1627200856E-03      0.7148225800E-03

    ------------------------------------------------
       NWT REQUIRED            9 OUTER ITERATIONS 
       AND A TOTAL OF         14 INNER ITERATIONS.
    ------------------------------------------------

 NO OUTPUT CONTROL FOR STRESS PERIOD   23   TIME STEP   27
 
 SOLVING FOR HEAD 
                                                   Max.-Head-Change                         Max.-Flux-Residual
  Residual-Control   Outer-Iter.   Inner-Iter.     Column Row Layer    Maximum-Head-Change  Column Row Layer    Maximum-Flux-Residual          L2-NORM 
          0                 1           2             6   13     1       0.9744376678E-02       6   13    1         0.5195659577E+00      0.1259882070E+01
          0                 2           2             1    4     1       0.1695951564E-02       6   13    1        -0.5191886248E-01      0.2589957626E+00
          0                 3           2             1    4     1       0.7618178297E-03       1    4    1         0.1979376283E-01      0.9273818414E-01
          0                 4           2             1    4     1       0.3422059960E-03       1    4    1         0.8891311845E-02      0.4006686767E-01
          0                 5           2             1    4     1       0.1537173418E-03       1    4    1         0.3993945254E-02      0.1783111752E-01
          0                 6           1             1    4     1       0.6904891557E-04       1    4    1         0.1794060712E-02      0.7970432244E-02
          0                 7           1             1    4     1       0.3101627073E-04       1    4    1         0.8058809746E-03      0.3565566662E-02
          0                 8           1             1    4     1       0.1393224158E-04       1    4    1         0.3619956795E-03      0.1595439049E-02
          0                 9           1             1    4     1       0.6258223752E-05       1    4    1         0.1626052507E-03      0.7139935827E-03

    ------------------------------------------------
       NWT REQUIRED            9 OUTER ITERATIONS 
       AND A TOTAL OF         14 INNER ITERATIONS.
    ------------------------------------------------

 NO OUTPUT CONTROL FOR STRESS PERIOD   23   TIME STEP   28
 
 SOLVING FOR HEAD 
                                                   Max.-Head-Change                         Max.-Flux-Residual
  Residual-Control   Outer-Iter.   Inner-Iter.     Column Row Layer    Maximum-Head-Change  Column Row Layer    Maximum-Flux-Residual          L2-NORM 
          0                 1           2             6   13     1       0.9493995549E-02       6   13    1         0.5062945559E+00      0.1240340252E+01
          0                 2           2             1    4     1       0.1694774198E-02       6   13    1        -0.5059279165E-01      0.2574671651E+00
          0                 3           2             1    4     1       0.7612872226E-03       1    4    1         0.1978001329E-01      0.9239282661E-01
          0                 4           2             1    4     1       0.3419668759E-03       1    4    1         0.8885115347E-02      0.3991922709E-01
          0                 5           2             1    4     1       0.1536095862E-03       1    4    1         0.3991152806E-02      0.1776535059E-01
          0                 6           1             1    4     1       0.6900035926E-04       1    4    1         0.1792802349E-02      0.7941154875E-02
          0                 7           1             1    4     1       0.3099439152E-04       1    4    1         0.8053139429E-03      0.3552551134E-02
          0                 8           1             1    4     1       0.1392238321E-04       1    4    1         0.3617401797E-03      0.1589659748E-02
          0                 9           1             1    4     1       0.6253782030E-05       1    4    1         0.1624901281E-03      0.7114302208E-03

    ------------------------------------------------
       NWT REQUIRED            9 OUTER ITERATIONS 
       AND A TOTAL OF         14 INNER ITERATIONS.
    ------------------------------------------------

 NO OUTPUT CONTROL FOR STRESS PERIOD   23   TIME STEP   29
 
 SOLVING FOR HEAD 
                                                   Max.-Head-Change                         Max.-Flux-Residual
  Residual-Control   Outer-Iter.   Inner-Iter.     Column Row Layer    Maximum-Head-Change  Column Row Layer    Maximum-Flux-Residual          L2-NORM 
          0                 1           2             6   13     1       0.9249054651E-02       6   13    1         0.4932955152E+00      0.1220078562E+01
          0                 2           2             1    4     1       0.1693594063E-02       6   13    1        -0.4929386297E-01      0.2557416340E+00
          0                 3           2             1    4     1       0.7607553622E-03       1    4    1         0.1976623139E-01      0.9220033922E-01
          0                 4           2             1    4     1       0.3417271885E-03       1    4    1         0.8878904212E-02      0.3986817874E-01
          0                 5           2             1    4     1       0.1535015733E-03       1    4    1         0.3988353720E-02      0.1774469942E-01
          0                 6           1             1    4     1       0.6895168590E-04       1    4    1         0.1791540972E-02      0.7932020402E-02
          0                 7           1             1    4     1       0.3097245903E-04       1    4    1         0.8047455369E-03      0.3548452525E-02
          0                 8           1             1    4     1       0.1391250032E-04       1    4    1         0.3614840503E-03      0.1587817257E-02
          0                 9           1             1    4     1       0.6249329053E-05       1    4    1         0.1623747231E-03      0.7106033805E-03

    ------------------------------------------------
       NWT REQUIRED            9 OUTER ITERATIONS 
       AND A TOTAL OF         14 INNER ITERATIONS.
    ------------------------------------------------

 NO OUTPUT CONTROL FOR STRESS PERIOD   23   TIME STEP   30



 STREAM LISTING     PERIOD     23   STEP       30

 LAYER ROW COL. STREAM  RCH.  FLOW INTO     FLOW TO   FLOW OUT OF   OVRLND.     DIRECT     STREAM       STREAM     STREAM     STREAM   STREAMBED  STREAMBED
                SEG.NO.  NO.  STRM. RCH.    AQUIFER    STRM. RCH.    RUNOFF     PRECIP       ET          HEAD       DEPTH      WIDTH   CONDCTNC.   GRADIENT

   1    1    1     1     1    3.2000E+00  8.0317E-02   3.1197E+00  0.000E+00  0.000E+00  0.000E+00  1.09369E+03  6.449E-01  4.897E+00  2.204E-02  1.215E+00
   1    2    2     1     2    3.1197E+00  1.2332E-01   2.9964E+00  0.000E+00  0.000E+00  0.000E+00  1.08870E+03  6.376E-01  4.843E+00  3.390E-02  1.213E+00
   1    3    3     1     3    2.9964E+00  1.0413E-01   2.8922E+00  0.000E+00  0.000E+00  0.000E+00  1.08305E+03  6.292E-01  4.782E+00  2.869E-02  1.210E+00
   1    3    4     1     4    2.8922E+00  9.5018E-02   2.7972E+00  0.000E+00  0.000E+00  0.000E+00  1.07803E+03  6.217E-01  4.727E+00  2.624E-02  1.207E+00
   1    4    5     2     1    7.9721E-01  2.4478E-01   5.5243E-01  0.000E+00  0.000E+00  0.000E+00  1.07207E+03  1.382E-01  1.200E+01  7.800E-02  1.046E+00
   1    5    6     2     2    5.5243E-01  1.8658E-01   3.6584E-01  0.000E+00  0.000E+00  0.000E+00  1.06662E+03  1.097E-01  1.200E+01  6.000E-02  1.037E+00
   1    6    6     2     3    3.6584E-01  1.8482E-01   1.8102E-01  0.000E+00  0.000E+00  0.000E+00  1.06187E+03  8.040E-02  1.200E+01  6.000E-02  1.027E+00
   1    7    6     2     4    1.8102E-01  1.8102E-01   0.0000E+00  0.000E+00  0.000E+00  0.000E+00  1.05710E+03  2.119E-02  1.200E+01  6.000E-02  1.007E+00
   1    8    6     2     5    0.0000E+00  0.0000E+00   0.0000E+00  0.000E+00  0.000E+00  0.000E+00  1.05236E+03  0.000E+00  1.200E+01  6.000E-02  1.000E+00
   1    3    5     3     1    2.0000E+00  2.8252E-01   1.7175E+00  0.000E+00  0.000E+00  0.000E+00  1.07555E+03  1.909E+00  9.636E+00  7.227E-02  1.955E+00
   1    3    6     3     2    1.7175E+00  2.4905E-01   1.4684E+00  0.000E+00  0.000E+00  0.000E+00  1.07264E+03  1.727E+00  8.909E+00  6.682E-02  1.864E+00
   1    3    7     3     3    1.4684E+00  1.9718E-01   1.2712E+00  0.000E+00  0.000E+00  0.000E+00  1.06987E+03  1.555E+00  8.218E+00  5.547E-02  1.777E+00
   1    4    8     3     4    1.2712E+00  2.2567E-01   1.0456E+00  0.000E+00  0.000E+00  0.000E+00  1.06682E+03  1.364E+00  7.455E+00  6.709E-02  1.682E+00
   1    5    8     3     5    1.0456E+00  1.5790E-01   8.8768E-01  0.000E+00  0.000E+00  0.000E+00  1.06362E+03  1.164E+00  6.655E+00  4.991E-02  1.582E+00
   1    6    8     3     6    8.8768E-01  5.5980E-02   8.3170E-01  0.000E+00  0.000E+00  0.000E+00  1.06158E+03  1.036E+00  6.145E+00  1.844E-02  1.518E+00
   1    5   10     4     1    1.0000E+01  9.0919E-02   9.9091E+00  0.000E+00  0.000E+00  0.000E+00  1.07836E+03  6.368E-01  1.000E+01  2.500E-02  1.212E+00
   1    5    9     4     2    9.9091E+00  1.8158E-01   9.7275E+00  0.000E+00  0.000E+00  0.000E+00  1.07154E+03  6.315E-01  1.000E+01  5.000E-02  1.211E+00
   1    6    8     4     3    9.7275E+00  1.2689E-01   9.6006E+00  0.000E+00  0.000E+00  0.000E+00  1.06381E+03  6.256E-01  1.000E+01  3.500E-02  1.209E+00
   1    6    8     5     1    1.0432E+01  2.2686E-01   1.0205E+01  0.000E+00  0.000E+00  0.000E+00  1.05868E+03  6.790E-01  1.542E+01  6.166E-02  1.226E+00
   1    7    7     5     2    1.0205E+01  2.7894E-01   9.9265E+00  0.000E+00  0.000E+00  0.000E+00  1.05417E+03  6.732E-01  1.519E+01  7.594E-02  1.224E+00
   1    8    7     5     3    9.9265E+00  1.9221E-01   9.7343E+00  0.000E+00  0.000E+00  0.000E+00  1.04992E+03  6.676E-01  1.497E+01  5.241E-02  1.223E+00
   1    8    6     5     4    9.7343E+00  1.3577E-01   9.5985E+00  0.000E+00  0.000E+00  0.000E+00  1.04691E+03  6.637E-01  1.482E+01  3.706E-02  1.221E+00
   1    9    6     6     1    9.5985E+00  2.2097E-01   9.3776E+00  0.000E+00  0.000E+00  0.000E+00  1.04341E+03  6.828E-01  1.200E+01  6.000E-02  1.228E+00
   1   10    7     6     2    9.3776E+00  2.2039E-01   9.1572E+00  0.000E+00  0.000E+00  0.000E+00  1.03885E+03  6.732E-01  1.200E+01  6.000E-02  1.224E+00
   1   11    7     6     3    9.1572E+00  2.1981E-01   8.9374E+00  0.000E+00  0.000E+00  0.000E+00  1.03430E+03  6.636E-01  1.200E+01  6.000E-02  1.221E+00
   1   12    7     6     4    8.9374E+00  2.1923E-01   8.7181E+00  0.000E+00  0.000E+00  0.000E+00  1.02974E+03  6.539E-01  1.200E+01  6.000E-02  1.218E+00
   1   13    7     6     5    8.7181E+00 -1.8325E-01   8.9014E+00  0.000E+00  0.000E+00  0.000E+00  1.02656E+03  6.531E-01  1.200E+01  2.400E-01 -2.545E-01
   1   14    9     7     1    1.5000E+02  1.1709E+00   1.4883E+02  0.000E+00  0.000E+00  0.000E+00  1.03987E+03  2.288E+00  5.530E+01  5.593E-01  6.978E-01
   1   13    8     7     2    1.4883E+02  1.6454E+00   1.4718E+02  0.000E+00  0.000E+00  0.000E+00  1.03478E+03  2.281E+00  5.526E+01  6.149E-01  8.920E-01
   1   13    7     7     3    1.4718E+02  1.3218E+00   1.4586E+02  0.000E+00  0.000E+00  0.000E+00  1.02969E+03  2.273E+00  5.523E+01  5.586E-01  7.888E-01
   1   13    6     8     1    1.5476E+02  6.9651E-01   1.5407E+02  0.000E+00  0.000E+00  0.000E+00  1.02472E+03  2.848E+00  4.129E+01  4.208E-01  5.518E-01
   1   13    5     8     2    1.5407E+02 -2.9865E-01   1.5437E+02  0.000E+00  0.000E+00  0.000E+00  1.01847E+03  2.846E+00  4.127E+01  4.206E+00 -2.367E-02
   1   13    4     8     3    1.5437E+02 -3.4103E+00   1.5778E+02  0.000E+00  0.000E+00  0.000E+00  1.01223E+03  2.859E+00  4.146E+01  4.225E+00 -2.691E-01
   1   13    3     8     4    1.5778E+02 -4.2653E+00   1.6204E+02  0.000E+00  0.000E+00  0.000E+00  1.00601E+03  2.885E+00  4.184E+01  4.263E+00 -3.335E-01
   1   13    2     8     5    1.6204E+02 -2.7289E+00   1.6477E+02  0.000E+00  0.000E+00  0.000E+00  9.99784E+02  2.909E+00  4.218E+01  4.298E+00 -2.116E-01
   1   13    1     8     6    1.6477E+02 -1.8740E+00   1.6664E+02  0.000E+00  0.000E+00  0.000E+00  9.94799E+02  2.924E+00  4.240E+01  2.592E+00 -2.410E-01
   1    6    8     9     1    0.0000E+00  0.0000E+00   0.0000E+00  0.000E+00  0.000E+00  0.000E+00  1.07850E+03  0.000E+00  4.000E+00  0.000E+00  1.000E+00





UNSATURATED ZONE PACKAGE VOLUMETRIC BUDGET FOR  TIME STEP    30 STRESS PERIOD   23
  ------------------------------------------------------------------------------



     CUMULATIVE VOLUMES      L**3       RATES FOR THIS TIME STEP      L**3/T
     ------------------                 ------------------------

           IN:                                      IN:
           ---                                      ---
        INFILTRATION =    44597671.4802          INFILTRATION =       0.0000E+00

          OUT:                                     OUT:
          ----                                     ----
              UZF ET =   571719376.0452                UZF ET =       0.0000E+00
        UZF RECHARGE =  1282336165.8688          UZF RECHARGE =          17.2982

            IN - OUT = -1809457870.4338              IN - OUT =         -17.2982

          STORAGE:                                 STORAGE:
          --------                                 --------
      STORAGE CHANGE = -1809431662.5323        STORAGE CHANGE =         -17.2982

 PERCENT DISCREPANCY IS DIFFERENCE BETWEEN IN-OUT MINUS CHANGE IN STORAGE
 DIVIDED BY THE AVERAGE OF IN AND OUT TIMES 100

 PERCENT DISCREPANCY =          -0.00     PERCENT DISCREPANCY =           0.00






1
  VOLUMETRIC BUDGET FOR ENTIRE MODEL AT END OF TIME STEP   30, STRESS PERIOD  23
  ------------------------------------------------------------------------------

     CUMULATIVE VOLUMES      L**3       RATES FOR THIS TIME STEP      L**3/T
     ------------------                 ------------------------

           IN:                                      IN:
           ---                                      ---
             STORAGE     =    79103904.0000               STORAGE     =           0.3196
       CONSTANT HEAD     =           0.0000         CONSTANT HEAD     =           0.0000
               WELLS     =           0.0000                 WELLS     =           0.0000
     HEAD DEP BOUNDS     =    15889784.0000       HEAD DEP BOUNDS     =           0.2745
      STREAM LEAKAGE     =   633075264.0000        STREAM LEAKAGE     =           9.3165
        UZF RECHARGE     =  1282336512.0000          UZF RECHARGE     =          17.2982
               GW ET     =           0.0000                 GW ET     =           0.0000
     SURFACE LEAKAGE     =           0.0000       SURFACE LEAKAGE     =           0.0000
    SUPPLEMENTARY WELLS  =           0.0000      SUPPLEMENTARY WELLS  =           0.0000

                TOTAL IN =  2010405376.0000                  TOTAL IN =          27.2088

          OUT:                                     OUT:
          ----                                     ----
             STORAGE     =  1182963200.0000               STORAGE     =          14.1431
       CONSTANT HEAD     =           0.0000         CONSTANT HEAD     =           0.0000
               WELLS     =           0.0000                 WELLS     =           0.0000
     HEAD DEP BOUNDS     =    16611415.0000       HEAD DEP BOUNDS     =           0.2858
      STREAM LEAKAGE     =   627458880.0000        STREAM LEAKAGE     =          12.7604
        UZF RECHARGE     =           0.0000          UZF RECHARGE     =           0.0000
               GW ET     =   183147584.0000                 GW ET     =       1.7500E-02
     SURFACE LEAKAGE     =           0.0000       SURFACE LEAKAGE     =           0.0000
    SUPPLEMENTARY WELLS  =      324965.9062      SUPPLEMENTARY WELLS  =           0.0000

               TOTAL OUT =  2010506112.0000                 TOTAL OUT =          27.2068

                IN - OUT =     -100736.0000                  IN - OUT =       1.9779E-03

     PERCENT DISCREPANCY =          -0.01         PERCENT DISCREPANCY =           0.01






         TIME SUMMARY AT END OF TIME STEP   30 IN STRESS PERIOD   23
                    SECONDS     MINUTES      HOURS       DAYS        YEARS
                    -----------------------------------------------------------
   TIME STEP LENGTH  87600.      1460.0      24.333      1.0139     2.77588E-03
 STRESS PERIOD TIME 2.62800E+06  43800.      730.00      30.417     8.32763E-02
         TOTAL TIME 5.79024E+07 9.65040E+05  16084.      670.17      1.8348    
1
1
                            STRESS PERIOD NO.   24, LENGTH =   2628000.    
                            -----------------------------------------------

                              NUMBER OF TIME STEPS =    30

                               MULTIPLIER FOR DELT =     1.000

                            INITIAL TIME STEP SIZE =   87600.00    

 WELL NO.  LAYER   ROW   COL   STRESS RATE         
 --------------------------------------------------
      1      1      6      4       0.000    
      2      1      6      7       0.000    
      3      1      7      4       0.000    
      4      1      7      5       0.000    
      5      1      8      4       0.000    
      6      1      8      5       0.000    
      7      1      9      4       0.000    
      8      1      9      5       0.000    
      9      1     10      4       0.000    
     10      1     10      5       0.000    

     10 WELLS

 REUSING NON-PARAMETER GHB CELLS FROM LAST STRESS PERIOD

      2 GHB CELLS

 REUSING STREAM SEGMENT DATA FROM LAST STRESS PERIOD



            AREAL INFILTRATION RATE
 READING ON UNIT   19 WITH FORMAT: (10F4.0)            

            1           2           3           4           5           6           7           8           9          10
 ........................................................................................................................
   1    0.000       0.000       0.000       0.000       0.000       0.000       0.000       0.000       0.000       0.000    
   2    0.000       0.000       0.000       0.000       0.000       0.000       0.000       0.000       0.000       0.000    
   3    0.000       0.000       0.000       0.000       0.000       0.000       0.000       0.000       0.000       0.000    
   4    0.000       0.000       0.000       0.000       0.000       0.000       0.000       0.000       0.000       0.000    
   5    0.000       0.000       0.000       0.000       0.000       0.000       0.000       0.000       0.000       0.000    
   6    0.000       0.000       0.000       0.000       0.000       0.000       0.000       0.000       0.000       0.000    
   7    0.000       0.000       0.000       0.000       0.000       0.000       0.000       0.000       0.000       0.000    
   8    0.000       0.000       0.000       0.000       0.000       0.000       0.000       0.000       0.000       0.000    
   9    0.000       0.000       0.000       0.000       0.000       0.000       0.000       0.000       0.000       0.000    
  10    0.000       0.000       0.000       0.000       0.000       0.000       0.000       0.000       0.000       0.000    
  11    0.000       0.000       0.000       0.000       0.000       0.000       0.000       0.000       0.000       0.000    
  12    0.000       0.000       0.000       0.000       0.000       0.000       0.000       0.000       0.000       0.000    
  13    0.000       0.000       0.000       0.000       0.000       0.000       0.000       0.000       0.000       0.000    
  14    0.000       0.000       0.000       0.000       0.000       0.000       0.000       0.000       0.000       0.000    
  15    0.000       0.000       0.000       0.000       0.000       0.000       0.000       0.000       0.000       0.000    

                  ET RATE =  1.000000E-10

 USING ET EXTINCTION DEPTH FROM PREVIOUS STRESS PERIOD. CURRENT PERIOD IS:      24

 USING EXTINCTION WATER CONTENT FROM PREVIOUS STRESS PERIOD. CURRENT PERIOD IS:      24

 PROCESSING AGO STRESS PERIOD DATA

 READING AGO STRESS PERIOD DATA

 READING IRRIGATION STREAM

 READING IRRIGATION WELL

 READING SUPPLEMENTAL WEL

 END PROCESSING AGO STRESS PERIOD DATA OPTIONS
 
 SOLVING FOR HEAD 
                                                   Max.-Head-Change                         Max.-Flux-Residual
  Residual-Control   Outer-Iter.   Inner-Iter.     Column Row Layer    Maximum-Head-Change  Column Row Layer    Maximum-Flux-Residual          L2-NORM 
          0                 1           2             6   13     1       0.9013403810E-02       6   13    1         0.4807648197E+00      0.1202719283E+01
          0                 2           2             1    4     1       0.1692411440E-02       6   13    1        -0.4804171793E-01      0.2545945027E+00
          0                 3           2             1    4     1       0.7602224529E-03       1    4    1         0.1975242080E-01      0.9206608953E-01
          0                 4           2             1    4     1       0.3414870596E-03       1    4    1         0.8872680969E-02      0.3982144121E-01
          0                 5           2             1    4     1       0.1533933750E-03       1    4    1         0.3985549546E-02      0.1772432446E-01
          0                 6           1             1    4     1       0.6890293576E-04       1    4    1         0.1790277472E-02      0.7922922342E-02
          0                 7           1             1    4     1       0.3095049428E-04       1    4    1         0.8041762522E-03      0.3544374373E-02
          0                 8           1             1    4     1       0.1390260492E-04       1    4    1         0.3612275683E-03      0.1585987864E-02
          0                 9           1             1    4     1       0.6244871074E-05       1    4    1         0.1622591695E-03      0.7097802141E-03

    ------------------------------------------------
       NWT REQUIRED            9 OUTER ITERATIONS 
       AND A TOTAL OF         14 INNER ITERATIONS.
    ------------------------------------------------

 NO OUTPUT CONTROL FOR STRESS PERIOD   24   TIME STEP    1
 
 SOLVING FOR HEAD 
                                                   Max.-Head-Change                         Max.-Flux-Residual
  Residual-Control   Outer-Iter.   Inner-Iter.     Column Row Layer    Maximum-Head-Change  Column Row Layer    Maximum-Flux-Residual          L2-NORM 
          0                 1           2             6   13     1       0.8783255322E-02       6   13    1         0.4685164351E+00      0.1186719931E+01
          0                 2           2             1    4     1       0.1691226657E-02       6   13    1        -0.4681769576E-01      0.2535629797E+00
          0                 3           2             1    4     1       0.7596886576E-03       1    4    1         0.1973858539E-01      0.9194324448E-01
          0                 4           2             1    4     1       0.3412465708E-03       1    4    1         0.8866447565E-02      0.3977693611E-01
          0                 5           2             1    4     1       0.1532850329E-03       1    4    1         0.3982741258E-02      0.1770463686E-01
          0                 6           1             1    4     1       0.6885412809E-04       1    4    1         0.1789012318E-02      0.7914075662E-02
          0                 7           1             1    4     1       0.3092850777E-04       1    4    1         0.8036063130E-03      0.3540397891E-02
          0                 8           1             1    4     1       0.1389270053E-04       1    4    1         0.3609708200E-03      0.1584203168E-02
          0                 9           1             1    4     1       0.6240409843E-05       1    4    1         0.1621435165E-03      0.7089773875E-03

    ------------------------------------------------
       NWT REQUIRED            9 OUTER ITERATIONS 
       AND A TOTAL OF         14 INNER ITERATIONS.
    ------------------------------------------------

 NO OUTPUT CONTROL FOR STRESS PERIOD   24   TIME STEP    2
 
 SOLVING FOR HEAD 
                                                   Max.-Head-Change                         Max.-Flux-Residual
  Residual-Control   Outer-Iter.   Inner-Iter.     Column Row Layer    Maximum-Head-Change  Column Row Layer    Maximum-Flux-Residual          L2-NORM 
          0                 1           2             6   13     1       0.8558751513E-02       6   13    1         0.4565593043E+00      0.1171983831E+01
          0                 2           2             1    4     1       0.1690039201E-02       6   13    1        -0.4562268801E-01      0.2525870221E+00
          0                 3           2             1    4     1       0.7591535463E-03       1    4    1         0.1972471823E-01      0.9181699338E-01
          0                 4           2             1    4     1       0.3410054395E-03       1    4    1         0.8860198552E-02      0.3973107632E-01
          0                 5           2             1    4     1       0.1531763794E-03       1    4    1         0.3979925362E-02      0.1768454638E-01
          0                 6           1             1    4     1       0.6880517085E-04       1    4    1         0.1787743487E-02      0.7905097116E-02
          0                 7           1             1    4     1       0.3090644973E-04       1    4    1         0.8030346077E-03      0.3536370377E-02
          0                 8           1             1    4     1       0.1388276261E-04       1    4    1         0.3607132335E-03      0.1582390706E-02
          0                 9           1             1    4     1       0.6235932105E-05       1    4    1         0.1620274572E-03      0.7081647075E-03

    ------------------------------------------------
       NWT REQUIRED            9 OUTER ITERATIONS 
       AND A TOTAL OF         14 INNER ITERATIONS.
    ------------------------------------------------

 NO OUTPUT CONTROL FOR STRESS PERIOD   24   TIME STEP    3
 
 SOLVING FOR HEAD 
                                                   Max.-Head-Change                         Max.-Flux-Residual
  Residual-Control   Outer-Iter.   Inner-Iter.     Column Row Layer    Maximum-Head-Change  Column Row Layer    Maximum-Flux-Residual          L2-NORM 
          0                 1           2             6   13     1       0.8339894635E-02       6   13    1         0.4448949943E+00      0.1158262995E+01
          0                 2           2             1    4     1       0.1688849265E-02       6   13    1        -0.4445724592E-01      0.2516655008E+00
          0                 3           2             1    4     1       0.7586173530E-03       1    4    1         0.1971082228E-01      0.9169119555E-01
          0                 4           2             1    4     1       0.3407638375E-03       1    4    1         0.8853936996E-02      0.3968233459E-01
          0                 5           2             1    4     1       0.1530675208E-03       1    4    1         0.3977104002E-02      0.1766217106E-01
          0                 6           1             1    4     1       0.6875612458E-04       1    4    1         0.1786472279E-02      0.7894709342E-02
          0                 7           1             1    4     1       0.3088435241E-04       1    4    1         0.8024618671E-03      0.3531561728E-02
          0                 8           1             1    4     1       0.1387280770E-04       1    4    1         0.3604552008E-03      0.1580175698E-02
          0                 9           1             1    4     1       0.6231447614E-05       1    4    1         0.1619112135E-03      0.7071489208E-03

    ------------------------------------------------
       NWT REQUIRED            9 OUTER ITERATIONS 
       AND A TOTAL OF         14 INNER ITERATIONS.
    ------------------------------------------------

 NO OUTPUT CONTROL FOR STRESS PERIOD   24   TIME STEP    4
 
 SOLVING FOR HEAD 
                                                   Max.-Head-Change                         Max.-Flux-Residual
  Residual-Control   Outer-Iter.   Inner-Iter.     Column Row Layer    Maximum-Head-Change  Column Row Layer    Maximum-Flux-Residual          L2-NORM 
          0                 1           2             6   13     1       0.8126554548E-02       6   13    1         0.4335177992E+00      0.1145507444E+01
          0                 2           2             1    4     1       0.1687657579E-02       1    4    1         0.4384964328E-01      0.2507101662E+00
          0                 3           2             1    4     1       0.7580805539E-03       1    4    1         0.1969690675E-01      0.9150426788E-01
          0                 4           2             1    4     1       0.3405220439E-03       1    4    1         0.8847668749E-02      0.3960769654E-01
          0                 5           2             1    4     1       0.1529586122E-03       1    4    1         0.3974280574E-02      0.1762983638E-01
          0                 6           1             1    4     1       0.6870707180E-04       1    4    1         0.1785200557E-02      0.7880588081E-02
          0                 7           1             1    4     1       0.3086225986E-04       1    4    1         0.8018890828E-03      0.3525377904E-02
          0                 8           1             1    4     1       0.1386285753E-04       1    4    1         0.3601972229E-03      0.1577462742E-02
          0                 9           1             1    4     1       0.6226966374E-05       1    4    1         0.1617950268E-03      0.7059558333E-03

    ------------------------------------------------
       NWT REQUIRED            9 OUTER ITERATIONS 
       AND A TOTAL OF         14 INNER ITERATIONS.
    ------------------------------------------------

 NO OUTPUT CONTROL FOR STRESS PERIOD   24   TIME STEP    5
 
 SOLVING FOR HEAD 
                                                   Max.-Head-Change                         Max.-Flux-Residual
  Residual-Control   Outer-Iter.   Inner-Iter.     Column Row Layer    Maximum-Head-Change  Column Row Layer    Maximum-Flux-Residual          L2-NORM 
          0                 1           2             6   13     1       0.7918801438E-02       6   13    1         0.4224325207E+00      0.1133825518E+01
          0                 2           2             1    4     1       0.1686463588E-02       1    4    1         0.4381869769E-01      0.2499075418E+00
          0                 3           2             1    4     1       0.7575426018E-03       1    4    1         0.1968296376E-01      0.9136953072E-01
          0                 4           2             1    4     1       0.3402796795E-03       1    4    1         0.8841386789E-02      0.3955359658E-01
          0                 5           2             1    4     1       0.1528494237E-03       1    4    1         0.3971450376E-02      0.1760562982E-01
          0                 6           1             1    4     1       0.6865788296E-04       1    4    1         0.1783925526E-02      0.7869665269E-02
          0                 7           1             1    4     1       0.3084010127E-04       1    4    1         0.8013146888E-03      0.3520452783E-02
          0                 8           1             1    4     1       0.1385287585E-04       1    4    1         0.3599384707E-03      0.1575247814E-02
          0                 9           1             1    4     1       0.6222470378E-05       1    4    1         0.1616784707E-03      0.7049506493E-03

    ------------------------------------------------
       NWT REQUIRED            9 OUTER ITERATIONS 
       AND A TOTAL OF         14 INNER ITERATIONS.
    ------------------------------------------------

 NO OUTPUT CONTROL FOR STRESS PERIOD   24   TIME STEP    6
 
 SOLVING FOR HEAD 
                                                   Max.-Head-Change                         Max.-Flux-Residual
  Residual-Control   Outer-Iter.   Inner-Iter.     Column Row Layer    Maximum-Head-Change  Column Row Layer    Maximum-Flux-Residual          L2-NORM 
          0                 1           2             6   13     1       0.7716564681E-02       6   13    1         0.4116369586E+00      0.1122471401E+01
          0                 2           2             1    4     1       0.1685201349E-02       1    4    1         0.4378597262E-01      0.2489763667E+00
          0                 3           2             1    4     1       0.7569741247E-03       1    4    1         0.1966822486E-01      0.9119602067E-01
          0                 4           2             1    4     1       0.3400236624E-03       1    4    1         0.8834748840E-02      0.3948708749E-01
          0                 5           2             1    4     1       0.1527341288E-03       1    4    1         0.3968460953E-02      0.1757672761E-01
          0                 6           1             1    4     1       0.6860596266E-04       1    4    1         0.1782579280E-02      0.7856888206E-02
          0                 7           1             1    4     1       0.3081672139E-04       1    4    1         0.8007084494E-03      0.3514779576E-02
          0                 8           1             1    4     1       0.1384234817E-04       1    4    1         0.3596654781E-03      0.1572721191E-02
          0                 9           1             1    4     1       0.6217730024E-05       1    4    1         0.1615555432E-03      0.7038343806E-03

    ------------------------------------------------
       NWT REQUIRED            9 OUTER ITERATIONS 
       AND A TOTAL OF         14 INNER ITERATIONS.
    ------------------------------------------------

 NO OUTPUT CONTROL FOR STRESS PERIOD   24   TIME STEP    7
 
 SOLVING FOR HEAD 
                                                   Max.-Head-Change                         Max.-Flux-Residual
  Residual-Control   Outer-Iter.   Inner-Iter.     Column Row Layer    Maximum-Head-Change  Column Row Layer    Maximum-Flux-Residual          L2-NORM 
          0                 1           2             6   13     1       0.7519645674E-02       6   13    1         0.4011271063E+00      0.1111049789E+01
          0                 2           2             1    4     1       0.1684003798E-02       1    4    1         0.4375493150E-01      0.2481432666E+00
          0                 3           2             1    4     1       0.7564346374E-03       1    4    1         0.1965424064E-01      0.9107065027E-01
          0                 4           2             1    4     1       0.3397806377E-03       1    4    1         0.8828449110E-02      0.3944040487E-01
          0                 5           2             1    4     1       0.1526246570E-03       1    4    1         0.3965623109E-02      0.1755622400E-01
          0                 6           1             1    4     1       0.6855665227E-04       1    4    1         0.1781300960E-02      0.7847721780E-02
          0                 7           1             1    4     1       0.3079451078E-04       1    4    1         0.8001326453E-03      0.3510673326E-02
          0                 8           1             1    4     1       0.1383234423E-04       1    4    1         0.3594061230E-03      0.1570881153E-02
          0                 9           1             1    4     1       0.6213224023E-05       1    4    1         0.1614387300E-03      0.7030100591E-03

    ------------------------------------------------
       NWT REQUIRED            9 OUTER ITERATIONS 
       AND A TOTAL OF         14 INNER ITERATIONS.
    ------------------------------------------------

 NO OUTPUT CONTROL FOR STRESS PERIOD   24   TIME STEP    8
 
 SOLVING FOR HEAD 
                                                   Max.-Head-Change                         Max.-Flux-Residual
  Residual-Control   Outer-Iter.   Inner-Iter.     Column Row Layer    Maximum-Head-Change  Column Row Layer    Maximum-Flux-Residual          L2-NORM 
          0                 1           2             6   13     1       0.7330135876E-02       6   13    1         0.3908881662E+00      0.1102911958E+01
          0                 2           2             1    4     1       0.1682804596E-02       1    4    1         0.4372384338E-01      0.2472733240E+00
          0                 3           2             1    4     1       0.7558944958E-03       1    4    1         0.1964023756E-01      0.9095303759E-01
          0                 4           2             1    4     1       0.3395373570E-03       1    4    1         0.8822141912E-02      0.3939615810E-01
          0                 5           2             1    4     1       0.1525150871E-03       1    4    1         0.3962782359E-02      0.1753651478E-01
          0                 6           1             1    4     1       0.6850730536E-04       1    4    1         0.1780021537E-02      0.7838854916E-02
          0                 7           1             1    4     1       0.3077228691E-04       1    4    1         0.7995564388E-03      0.3506681569E-02
          0                 8           1             1    4     1       0.1382233654E-04       1    4    1         0.3591466370E-03      0.1569084585E-02
          0                 9           1             1    4     1       0.6208717522E-05       1    4    1         0.1613218731E-03      0.7022014295E-03

    ------------------------------------------------
       NWT REQUIRED            9 OUTER ITERATIONS 
       AND A TOTAL OF         14 INNER ITERATIONS.
    ------------------------------------------------

 NO OUTPUT CONTROL FOR STRESS PERIOD   24   TIME STEP    9
 
 SOLVING FOR HEAD 
                                                   Max.-Head-Change                         Max.-Flux-Residual
  Residual-Control   Outer-Iter.   Inner-Iter.     Column Row Layer    Maximum-Head-Change  Column Row Layer    Maximum-Flux-Residual          L2-NORM 
          0                 1           2             6   13     1       0.7153894856E-02       6   13    1         0.3814516440E+00      0.1094641663E+01
          0                 2           2             1    4     1       0.1681603234E-02       1    4    1         0.4369270466E-01      0.2466773571E+00
          0                 3           2             1    4     1       0.7553532678E-03       1    4    1         0.1962620871E-01      0.9084203709E-01
          0                 4           2             1    4     1       0.3392935375E-03       1    4    1         0.8815821797E-02      0.3935053454E-01
          0                 5           2             1    4     1       0.1524052525E-03       1    4    1         0.3959935210E-02      0.1751603533E-01
          0                 6           1             1    4     1       0.6845782964E-04       1    4    1         0.1778738978E-02      0.7829603621E-02
          0                 7           1             1    4     1       0.3075000127E-04       1    4    1         0.7989787034E-03      0.3502501886E-02
          0                 8           1             1    4     1       0.1381229808E-04       1    4    1         0.3588863997E-03      0.1567197666E-02
          0                 9           1             1    4     1       0.6204196265E-05       1    4    1         0.1612046626E-03      0.7013505997E-03

    ------------------------------------------------
       NWT REQUIRED            9 OUTER ITERATIONS 
       AND A TOTAL OF         14 INNER ITERATIONS.
    ------------------------------------------------

 NO OUTPUT CONTROL FOR STRESS PERIOD   24   TIME STEP   10
 
 SOLVING FOR HEAD 
                                                   Max.-Head-Change                         Max.-Flux-Residual
  Residual-Control   Outer-Iter.   Inner-Iter.     Column Row Layer    Maximum-Head-Change  Column Row Layer    Maximum-Flux-Residual          L2-NORM 
          0                 1           2             6   13     1       0.6982095176E-02       6   13    1         0.3723008015E+00      0.1086005342E+01
          0                 2           2             1    4     1       0.1680334135E-02       1    4    1         0.4365979529E-01      0.2460343287E+00
          0                 3           2             1    4     1       0.7547818368E-03       1    4    1         0.1961139035E-01      0.9071419961E-01
          0                 4           2             1    4     1       0.3390362510E-03       1    4    1         0.8809149653E-02      0.3929808126E-01
          0                 5           2             1    4     1       0.1522894131E-03       1    4    1         0.3956931098E-02      0.1749275216E-01
          0                 6           1             1    4     1       0.6840567674E-04       1    4    1         0.1777386434E-02      0.7819221340E-02
          0                 7           1             1    4     1       0.3072652159E-04       1    4    1         0.7983697641E-03      0.3497874124E-02
          0                 8           1             1    4     1       0.1380172789E-04       1    4    1         0.3586122563E-03      0.1565135978E-02
          0                 9           1             1    4     1       0.6199437902E-05       1    4    1         0.1610812456E-03      0.7004320316E-03

    ------------------------------------------------
       NWT REQUIRED            9 OUTER ITERATIONS 
       AND A TOTAL OF         14 INNER ITERATIONS.
    ------------------------------------------------

 NO OUTPUT CONTROL FOR STRESS PERIOD   24   TIME STEP   11
 
 SOLVING FOR HEAD 
                                                   Max.-Head-Change                         Max.-Flux-Residual
  Residual-Control   Outer-Iter.   Inner-Iter.     Column Row Layer    Maximum-Head-Change  Column Row Layer    Maximum-Flux-Residual          L2-NORM 
          0                 1           2             6   13     1       0.6814414506E-02       6   13    1         0.3633651283E+00      0.1077745327E+01
          0                 2           2             1    4     1       0.1679129849E-02       1    4    1         0.4362857747E-01      0.2454408237E+00
          0                 3           2             1    4     1       0.7542393610E-03       1    4    1         0.1959732768E-01      0.9060686216E-01
          0                 4           2             1    4     1       0.3387919005E-03       1    4    1         0.8802815113E-02      0.3925533304E-01
          0                 5           2             1    4     1       0.1521793537E-03       1    4    1         0.3954077821E-02      0.1747374143E-01
          0                 6           1             1    4     1       0.6835610573E-04       1    4    1         0.1776101276E-02      0.7810669267E-02
          0                 7           1             1    4     1       0.3070419593E-04       1    4    1         0.7977909386E-03      0.3494022387E-02
          0                 8           1             1    4     1       0.1379167342E-04       1    4    1         0.3583515660E-03      0.1563401674E-02
          0                 9           1             1    4     1       0.6194909892E-05       1    4    1         0.1609638386E-03      0.6996517209E-03

    ------------------------------------------------
       NWT REQUIRED            9 OUTER ITERATIONS 
       AND A TOTAL OF         14 INNER ITERATIONS.
    ------------------------------------------------

 NO OUTPUT CONTROL FOR STRESS PERIOD   24   TIME STEP   12
 
 SOLVING FOR HEAD 
                                                   Max.-Head-Change                         Max.-Flux-Residual
  Residual-Control   Outer-Iter.   Inner-Iter.     Column Row Layer    Maximum-Head-Change  Column Row Layer    Maximum-Flux-Residual          L2-NORM 
          0                 1           2             6   13     1       0.6650930332E-02       6   13    1         0.3546492007E+00      0.1070092565E+01
          0                 2           2             1    4     1       0.1677858059E-02       1    4    1         0.4359559516E-01      0.2448761807E+00
          0                 3           2             1    4     1       0.7536667850E-03       1    4    1         0.1958247822E-01      0.9049947398E-01
          0                 4           2             1    4     1       0.3385341278E-03       1    4    1         0.8796129737E-02      0.3921232476E-01
          0                 5           2             1    4     1       0.1520633085E-03       1    4    1         0.3951068092E-02      0.1745465025E-01
          0                 6           1             1    4     1       0.6830386603E-04       1    4    1         0.1774746354E-02      0.7802097478E-02
          0                 7           1             1    4     1       0.3068067974E-04       1    4    1         0.7971809915E-03      0.3490168352E-02
          0                 8           1             1    4     1       0.1378108772E-04       1    4    1         0.3580769954E-03      0.1561670840E-02
          0                 9           1             1    4     1       0.6190144776E-05       1    4    1         0.1608402418E-03      0.6988739914E-03

    ------------------------------------------------
       NWT REQUIRED            9 OUTER ITERATIONS 
       AND A TOTAL OF         14 INNER ITERATIONS.
    ------------------------------------------------

 NO OUTPUT CONTROL FOR STRESS PERIOD   24   TIME STEP   13
 
 SOLVING FOR HEAD 
                                                   Max.-Head-Change                         Max.-Flux-Residual
  Residual-Control   Outer-Iter.   Inner-Iter.     Column Row Layer    Maximum-Head-Change  Column Row Layer    Maximum-Flux-Residual          L2-NORM 
          0                 1           2             6   13     1       0.6491488450E-02       6   13    1         0.3461451326E+00      0.1062904361E+01
          0                 2           2             1    4     1       0.1676651327E-02       1    4    1         0.4356431081E-01      0.2443591583E+00
          0                 3           2             1    4     1       0.7531232745E-03       1    4    1         0.1956838732E-01      0.9039727366E-01
          0                 4           2             1    4     1       0.3382893414E-03       1    4    1         0.8789783257E-02      0.3917021550E-01
          0                 5           2             1    4     1       0.1519530655E-03       1    4    1         0.3948209779E-02      0.1743583665E-01
          0                 6           1             1    4     1       0.6825421849E-04       1    4    1         0.1773459084E-02      0.7793637139E-02
          0                 7           1             1    4     1       0.3065832231E-04       1    4    1         0.7966012807E-03      0.3486363299E-02
          0                 8           1             1    4     1       0.1377101975E-04       1    4    1         0.3578159353E-03      0.1559953737E-02
          0                 9           1             1    4     1       0.6185611514E-05       1    4    1         0.1607226864E-03      0.6981023956E-03

    ------------------------------------------------
       NWT REQUIRED            9 OUTER ITERATIONS 
       AND A TOTAL OF         14 INNER ITERATIONS.
    ------------------------------------------------

 NO OUTPUT CONTROL FOR STRESS PERIOD   24   TIME STEP   14
 
 SOLVING FOR HEAD 
                                                   Max.-Head-Change                         Max.-Flux-Residual
  Residual-Control   Outer-Iter.   Inner-Iter.     Column Row Layer    Maximum-Head-Change  Column Row Layer    Maximum-Flux-Residual          L2-NORM 
          0                 1           2             6   13     1       0.6336138625E-02       6   13    1         0.3378566275E+00      0.1055915434E+01
          0                 2           2             1    4     1       0.1675377321E-02       1    4    1         0.4353126793E-01      0.2435580228E+00
          0                 3           2             1    4     1       0.7525497661E-03       1    4    1         0.1955351230E-01      0.9008548798E-01
          0                 4           2             1    4     1       0.3380311780E-03       1    4    1         0.8783087135E-02      0.3901395840E-01
          0                 5           2             1    4     1       0.1518368579E-03       1    4    1         0.3945195559E-02      0.1735877491E-01
          0                 6           1             1    4     1       0.6820191102E-04       1    4    1         0.1772102292E-02      0.7756244540E-02
          0                 7           1             1    4     1       0.3063477836E-04       1    4    1         0.7959905686E-03      0.3468429862E-02
          0                 8           1             1    4     1       0.1376042280E-04       1    4    1         0.3575410532E-03      0.1551436667E-02
          0                 9           1             1    4     1       0.6180842146E-05       1    4    1         0.1605989678E-03      0.6940876379E-03

    ------------------------------------------------
       NWT REQUIRED            9 OUTER ITERATIONS 
       AND A TOTAL OF         14 INNER ITERATIONS.
    ------------------------------------------------

 NO OUTPUT CONTROL FOR STRESS PERIOD   24   TIME STEP   15
 
 SOLVING FOR HEAD 
                                                   Max.-Head-Change                         Max.-Flux-Residual
  Residual-Control   Outer-Iter.   Inner-Iter.     Column Row Layer    Maximum-Head-Change  Column Row Layer    Maximum-Flux-Residual          L2-NORM 
          0                 1           2             6   13     1       0.6184715489E-02       6   13    1         0.3297748331E+00      0.1048841463E+01
          0                 2           2             1    4     1       0.1674168617E-02       1    4    1         0.4349992933E-01      0.2425166891E+00
          0                 3           2             1    4     1       0.7520054322E-03       1    4    1         0.1953939866E-01      0.8969383141E-01
          0                 4           2             1    4     1       0.3377860494E-03       1    4    1         0.8776731173E-02      0.3884418584E-01
          0                 5           2             1    4     1       0.1517264739E-03       1    4    1         0.3942333315E-02      0.1728528589E-01
          0                 6           1             1    4     1       0.6815220620E-04       1    4    1         0.1770813406E-02      0.7724437407E-02
          0                 7           1             1    4     1       0.3061239717E-04       1    4    1         0.7954101933E-03      0.3454648335E-02
          0                 8           1             1    4     1       0.1375034557E-04       1    4    1         0.3572797256E-03      0.1545457718E-02
          0                 9           1             1    4     1       0.6176304632E-05       1    4    1         0.1604813009E-03      0.6914886212E-03

    ------------------------------------------------
       NWT REQUIRED            9 OUTER ITERATIONS 
       AND A TOTAL OF         14 INNER ITERATIONS.
    ------------------------------------------------

 NO OUTPUT CONTROL FOR STRESS PERIOD   24   TIME STEP   16
 
 SOLVING FOR HEAD 
                                                   Max.-Head-Change                         Max.-Flux-Residual
  Residual-Control   Outer-Iter.   Inner-Iter.     Column Row Layer    Maximum-Head-Change  Column Row Layer    Maximum-Flux-Residual          L2-NORM 
          0                 1           2             6   13     1       0.6037253803E-02       6   13    1         0.3219022881E+00      0.1042636810E+01
          0                 2           2             1    4     1       0.1672892482E-02       1    4    1         0.4346683261E-01      0.2420215982E+00
          0                 3           2             1    4     1       0.7514309371E-03       1    4    1         0.1952449865E-01      0.8958218533E-01
          0                 4           2             1    4     1       0.3375274296E-03       1    4    1         0.8770023471E-02      0.3879778656E-01
          0                 5           2             1    4     1       0.1516100550E-03       1    4    1         0.3939313733E-02      0.1726464153E-01
          0                 6           1             1    4     1       0.6809980143E-04       1    4    1         0.1769454135E-02      0.7715186892E-02
          0                 7           1             1    4     1       0.3058880845E-04       1    4    1         0.7947983336E-03      0.3450498076E-02
          0                 8           1             1    4     1       0.1373972811E-04       1    4    1         0.3570043137E-03      0.1543596444E-02
          0                 9           1             1    4     1       0.6171525760E-05       1    4    1         0.1603573331E-03      0.6906517709E-03

    ------------------------------------------------
       NWT REQUIRED            9 OUTER ITERATIONS 
       AND A TOTAL OF         14 INNER ITERATIONS.
    ------------------------------------------------

 NO OUTPUT CONTROL FOR STRESS PERIOD   24   TIME STEP   17
 
 SOLVING FOR HEAD 
                                                   Max.-Head-Change                         Max.-Flux-Residual
  Residual-Control   Outer-Iter.   Inner-Iter.     Column Row Layer    Maximum-Head-Change  Column Row Layer    Maximum-Flux-Residual          L2-NORM 
          0                 1           2             6   13     1       0.5893625457E-02       6   13    1         0.3142354745E+00      0.1036937549E+01
          0                 2           2             1    4     1       0.1671681931E-02       1    4    1         0.4343544307E-01      0.2415775657E+00
          0                 3           2             1    4     1       0.7508858356E-03       1    4    1         0.1951036376E-01      0.8947819531E-01
          0                 4           2             1    4     1       0.3372819844E-03       1    4    1         0.8763658689E-02      0.3875377194E-01
          0                 5           2             1    4     1       0.1514995409E-03       1    4    1         0.3936447847E-02      0.1724498250E-01
          0                 6           1             1    4     1       0.6805004334E-04       1    4    1         0.1768163756E-02      0.7706362416E-02
          0                 7           1             1    4     1       0.3056640600E-04       1    4    1         0.7942173553E-03      0.3446531896E-02
          0                 8           1             1    4     1       0.1372964213E-04       1    4    1         0.3567427457E-03      0.1541811824E-02
          0                 9           1             1    4     1       0.6166985244E-05       1    4    1         0.1602395763E-03      0.6898504342E-03

    ------------------------------------------------
       NWT REQUIRED            9 OUTER ITERATIONS 
       AND A TOTAL OF         14 INNER ITERATIONS.
    ------------------------------------------------

 NO OUTPUT CONTROL FOR STRESS PERIOD   24   TIME STEP   18
 
 SOLVING FOR HEAD 
                                                   Max.-Head-Change                         Max.-Flux-Residual
  Residual-Control   Outer-Iter.   Inner-Iter.     Column Row Layer    Maximum-Head-Change  Column Row Layer    Maximum-Flux-Residual          L2-NORM 
          0                 1           2             6   13     1       0.5753690392E-02       6   13    1         0.3067647876E+00      0.1031526872E+01
          0                 2           2             1    4     1       0.1670404176E-02       1    4    1         0.4340230123E-01      0.2411692660E+00
          0                 3           2             1    4     1       0.7503106765E-03       1    4    1         0.1949544513E-01      0.8938628951E-01
          0                 4           2             1    4     1       0.3370230947E-03       1    4    1         0.8756943370E-02      0.3871398670E-01
          0                 5           2             1    4     1       0.1513830139E-03       1    4    1         0.3933425183E-02      0.1722669877E-01
          0                 6           1             1    4     1       0.6799759606E-04       1    4    1         0.1766803254E-02      0.7697958056E-02
          0                 7           1             1    4     1       0.3054280077E-04       1    4    1         0.7936050104E-03      0.3442682005E-02
          0                 8           1             1    4     1       0.1371901842E-04       1    4    1         0.3564671457E-03      0.1540053663E-02
          0                 9           1             1    4     1       0.6162204121E-05       1    4    1         0.1601155384E-03      0.6890494442E-03

    ------------------------------------------------
       NWT REQUIRED            9 OUTER ITERATIONS 
       AND A TOTAL OF         14 INNER ITERATIONS.
    ------------------------------------------------

 NO OUTPUT CONTROL FOR STRESS PERIOD   24   TIME STEP   19
 
 SOLVING FOR HEAD 
                                                   Max.-Head-Change                         Max.-Flux-Residual
  Residual-Control   Outer-Iter.   Inner-Iter.     Column Row Layer    Maximum-Head-Change  Column Row Layer    Maximum-Flux-Residual          L2-NORM 
          0                 1           2             6   13     1       0.5617446585E-02       6   13    1         0.2994856079E+00      0.1026409428E+01
          0                 2           2             1    4     1       0.1669125833E-02       1    4    1         0.4336914531E-01      0.2407748858E+00
          0                 3           2             1    4     1       0.7497352285E-03       1    4    1         0.1948051953E-01      0.8929230704E-01
          0                 4           2             1    4     1       0.3367640647E-03       1    4    1         0.8750224629E-02      0.3867335383E-01
          0                 5           2             1    4     1       0.1512664192E-03       1    4    1         0.3930400849E-02      0.1720825342E-01
          0                 6           1             1    4     1       0.6794511526E-04       1    4    1         0.1765441938E-02      0.7689574414E-02
          0                 7           1             1    4     1       0.3051918004E-04       1    4    1         0.7929922798E-03      0.3438877510E-02
          0                 8           1             1    4     1       0.1370838720E-04       1    4    1         0.3561913576E-03      0.1538330027E-02
          0                 9           1             1    4     1       0.6157418997E-05       1    4    1         0.1599914115E-03      0.6882696672E-03

    ------------------------------------------------
       NWT REQUIRED            9 OUTER ITERATIONS 
       AND A TOTAL OF         14 INNER ITERATIONS.
    ------------------------------------------------

 NO OUTPUT CONTROL FOR STRESS PERIOD   24   TIME STEP   20
 
 SOLVING FOR HEAD 
                                                   Max.-Head-Change                         Max.-Flux-Residual
  Residual-Control   Outer-Iter.   Inner-Iter.     Column Row Layer    Maximum-Head-Change  Column Row Layer    Maximum-Flux-Residual          L2-NORM 
          0                 1           2             6   13     1       0.5484872236E-02       6   13    1         0.2924009726E+00      0.1021542317E+01
          0                 2           2             1    4     1       0.1667847263E-02       1    4    1         0.4333597946E-01      0.2403636308E+00
          0                 3           2             1    4     1       0.7491597643E-03       1    4    1         0.1946559169E-01      0.8918380961E-01
          0                 4           2             1    4     1       0.3365050647E-03       1    4    1         0.8743505872E-02      0.3862638858E-01
          0                 5           2             1    4     1       0.1511498544E-03       1    4    1         0.3927376953E-02      0.1718714295E-01
          0                 6           1             1    4     1       0.6789265622E-04       1    4    1         0.1764081021E-02      0.7680065109E-02
          0                 7           1             1    4     1       0.3049557181E-04       1    4    1         0.7923798113E-03      0.3434595195E-02
          0                 8           1             1    4     1       0.1369776298E-04       1    4    1         0.3559157301E-03      0.1536402737E-02
          0                 9           1             1    4     1       0.6152638124E-05       1    4    1         0.1598673743E-03      0.6874030508E-03

    ------------------------------------------------
       NWT REQUIRED            9 OUTER ITERATIONS 
       AND A TOTAL OF         14 INNER ITERATIONS.
    ------------------------------------------------

 NO OUTPUT CONTROL FOR STRESS PERIOD   24   TIME STEP   21
 
 SOLVING FOR HEAD 
                                                   Max.-Head-Change                         Max.-Flux-Residual
  Residual-Control   Outer-Iter.   Inner-Iter.     Column Row Layer    Maximum-Head-Change  Column Row Layer    Maximum-Flux-Residual          L2-NORM 
          0                 1           2             6   13     1       0.5355885323E-02       6   13    1         0.2855070022E+00      0.1016629144E+01
          0                 2           2             1    4     1       0.1666634367E-02       1    4    1         0.4330452761E-01      0.2399108830E+00
          0                 3           2             1    4     1       0.7486136378E-03       1    4    1         0.1945142956E-01      0.8906706502E-01
          0                 4           2             1    4     1       0.3362591720E-03       1    4    1         0.8737129190E-02      0.3857736021E-01
          0                 5           2             1    4     1       0.1510391453E-03       1    4    1         0.3924505873E-02      0.1716539175E-01
          0                 6           1             1    4     1       0.6784281334E-04       1    4    1         0.1762788376E-02      0.7670361963E-02
          0                 7           1             1    4     1       0.3047313209E-04       1    4    1         0.7917978386E-03      0.3430264184E-02
          0                 8           1             1    4     1       0.1368766099E-04       1    4    1         0.3556537291E-03      0.1534469400E-02
          0                 9           1             1    4     1       0.6148090605E-05       1    4    1         0.1597494263E-03      0.6865394644E-03

    ------------------------------------------------
       NWT REQUIRED            9 OUTER ITERATIONS 
       AND A TOTAL OF         14 INNER ITERATIONS.
    ------------------------------------------------

 NO OUTPUT CONTROL FOR STRESS PERIOD   24   TIME STEP   22
 
 SOLVING FOR HEAD 
                                                   Max.-Head-Change                         Max.-Flux-Residual
  Residual-Control   Outer-Iter.   Inner-Iter.     Column Row Layer    Maximum-Head-Change  Column Row Layer    Maximum-Flux-Residual          L2-NORM 
          0                 1           2             6   13     1       0.5230398045E-02       6   13    1         0.2787988731E+00      0.1011950455E+01
          0                 2           2             1    4     1       0.1665354742E-02       1    4    1         0.4327133137E-01      0.2395368321E+00
          0                 3           2             1    4     1       0.7480377616E-03       1    4    1         0.1943648969E-01      0.8898084820E-01
          0                 4           2             1    4     1       0.3360000155E-03       1    4    1         0.8730405760E-02      0.3853990600E-01
          0                 5           2             1    4     1       0.1509225227E-03       1    4    1         0.3921480201E-02      0.1714807400E-01
          0                 6           1             1    4     1       0.6779033379E-04       1    4    1         0.1761426807E-02      0.7662372993E-02
          0                 7           1             1    4     1       0.3044951761E-04       1    4    1         0.7911851466E-03      0.3426600563E-02
          0                 8           1             1    4     1       0.1367703503E-04       1    4    1         0.3553780261E-03      0.1532797449E-02
          0                 9           1             1    4     1       0.6143309483E-05       1    4    1         0.1596253709E-03      0.6857794656E-03

    ------------------------------------------------
       NWT REQUIRED            9 OUTER ITERATIONS 
       AND A TOTAL OF         14 INNER ITERATIONS.
    ------------------------------------------------

 NO OUTPUT CONTROL FOR STRESS PERIOD   24   TIME STEP   23
 
 SOLVING FOR HEAD 
                                                   Max.-Head-Change                         Max.-Flux-Residual
  Residual-Control   Outer-Iter.   Inner-Iter.     Column Row Layer    Maximum-Head-Change  Column Row Layer    Maximum-Flux-Residual          L2-NORM 
          0                 1           2             6   13     1       0.5108322103E-02       6   13    1         0.2722724605E+00      0.1007414577E+01
          0                 2           2             1    4     1       0.1664074598E-02       1    4    1         0.4323812730E-01      0.2391458395E+00
          0                 3           2             1    4     1       0.7474615338E-03       1    4    1         0.1942154321E-01      0.8889121261E-01
          0                 4           2             1    4     1       0.3357406483E-03       1    4    1         0.8723677986E-02      0.3850227218E-01
          0                 5           2             1    4     1       0.1508057827E-03       1    4    1         0.3918451972E-02      0.1713088815E-01
          0                 6           1             1    4     1       0.6773779096E-04       1    4    1         0.1760063819E-02      0.7654473852E-02
          0                 7           1             1    4     1       0.3042586986E-04       1    4    1         0.7905716978E-03      0.3422979698E-02
          0                 8           1             1    4     1       0.1366639230E-04       1    4    1         0.3551019369E-03      0.1531143439E-02
          0                 9           1             1    4     1       0.6138519856E-05       1    4    1         0.1595011185E-03      0.6850262528E-03

    ------------------------------------------------
       NWT REQUIRED            9 OUTER ITERATIONS 
       AND A TOTAL OF         14 INNER ITERATIONS.
    ------------------------------------------------

 NO OUTPUT CONTROL FOR STRESS PERIOD   24   TIME STEP   24
 
 SOLVING FOR HEAD 
                                                   Max.-Head-Change                         Max.-Flux-Residual
  Residual-Control   Outer-Iter.   Inner-Iter.     Column Row Layer    Maximum-Head-Change  Column Row Layer    Maximum-Flux-Residual          L2-NORM 
          0                 1           2             6   13     1       0.4989580033E-02       6   13    1         0.2659233384E+00      0.1002605160E+01
          0                 2           2             1    4     1       0.1662794715E-02       1    4    1         0.4320492157E-01      0.2385344050E+00
          0                 3           2             1    4     1       0.7468855996E-03       1    4    1         0.1940660062E-01      0.8871210947E-01
          0                 4           2             1    4     1       0.3354814913E-03       1    4    1         0.8716954008E-02      0.3842705276E-01
          0                 5           2             1    4     1       0.1506891711E-03       1    4    1         0.3915426352E-02      0.1709729962E-01
          0                 6           1             1    4     1       0.6768532167E-04       1    4    1         0.1758702407E-02      0.7639362504E-02
          0                 7           1             1    4     1       0.3040226163E-04       1    4    1         0.7899591267E-03      0.3416189099E-02
          0                 8           1             1    4     1       0.1365577034E-04       1    4    1         0.3548263175E-03      0.1528099002E-02
          0                 9           1             1    4     1       0.6133740734E-05       1    4    1         0.1593771091E-03      0.6836641472E-03

    ------------------------------------------------
       NWT REQUIRED            9 OUTER ITERATIONS 
       AND A TOTAL OF         14 INNER ITERATIONS.
    ------------------------------------------------

 NO OUTPUT CONTROL FOR STRESS PERIOD   24   TIME STEP   25
 
 SOLVING FOR HEAD 
                                                   Max.-Head-Change                         Max.-Flux-Residual
  Residual-Control   Outer-Iter.   Inner-Iter.     Column Row Layer    Maximum-Head-Change  Column Row Layer    Maximum-Flux-Residual          L2-NORM 
          0                 1           2             6   13     1       0.4874078499E-02       6   13    1         0.2597468126E+00      0.9974836258E+00
          0                 2           2             1    4     1       0.1661514751E-02       1    4    1         0.4317171678E-01      0.2379801754E+00
          0                 3           2             1    4     1       0.7463095664E-03       1    4    1         0.1939165678E-01      0.8856777248E-01
          0                 4           2             1    4     1       0.3352222619E-03       1    4    1         0.8710228734E-02      0.3836813287E-01
          0                 5           2             1    4     1       0.1505725153E-03       1    4    1         0.3912399831E-02      0.1707161598E-01
          0                 6           1             1    4     1       0.6763282686E-04       1    4    1         0.1757340443E-02      0.7628059261E-02
          0                 7           1             1    4     1       0.3037863964E-04       1    4    1         0.7893462494E-03      0.3411200929E-02
          0                 8           1             1    4     1       0.1364514112E-04       1    4    1         0.3545505360E-03      0.1525893989E-02
          0                 9           1             1    4     1       0.6128958111E-05       1    4    1         0.1592530185E-03      0.6826882233E-03

    ------------------------------------------------
       NWT REQUIRED            9 OUTER ITERATIONS 
       AND A TOTAL OF         14 INNER ITERATIONS.
    ------------------------------------------------

 NO OUTPUT CONTROL FOR STRESS PERIOD   24   TIME STEP   26
 
 SOLVING FOR HEAD 
                                                   Max.-Head-Change                         Max.-Flux-Residual
  Residual-Control   Outer-Iter.   Inner-Iter.     Column Row Layer    Maximum-Head-Change  Column Row Layer    Maximum-Flux-Residual          L2-NORM 
          0                 1           2             6   13     1       0.4761581560E-02       6   13    1         0.2537444912E+00      0.9931247098E+00
          0                 2           2             1    4     1       0.1660234629E-02       1    4    1         0.4313850910E-01      0.2375056399E+00
          0                 3           2             1    4     1       0.7457334346E-03       1    4    1         0.1937671095E-01      0.8845963568E-01
          0                 4           2             1    4     1       0.3349629766E-03       1    4    1         0.8703502258E-02      0.3832564030E-01
          0                 5           2             1    4     1       0.1504558285E-03       1    4    1         0.3909372629E-02      0.1705290953E-01
          0                 6           1             1    4     1       0.6758031555E-04       1    4    1         0.1755978118E-02      0.7619655602E-02
          0                 7           1             1    4     1       0.3035500990E-04       1    4    1         0.7887331880E-03      0.3407413225E-02
          0                 8           1             1    4     1       0.1363450790E-04       1    4    1         0.3542746563E-03      0.1524186510E-02
          0                 9           1             1    4     1       0.6124173487E-05       1    4    1         0.1591288733E-03      0.6819187545E-03

    ------------------------------------------------
       NWT REQUIRED            9 OUTER ITERATIONS 
       AND A TOTAL OF         14 INNER ITERATIONS.
    ------------------------------------------------

 NO OUTPUT CONTROL FOR STRESS PERIOD   24   TIME STEP   27
 
 SOLVING FOR HEAD 
                                                   Max.-Head-Change                         Max.-Flux-Residual
  Residual-Control   Outer-Iter.   Inner-Iter.     Column Row Layer    Maximum-Head-Change  Column Row Layer    Maximum-Flux-Residual          L2-NORM 
          0                 1           2             6   13     1       0.4651843813E-02       6   13    1         0.2478804659E+00      0.9879007235E+00
          0                 2           2             1    4     1       0.1658955082E-02       1    4    1         0.4310530797E-01      0.2369747337E+00
          0                 3           2             1    4     1       0.7451577385E-03       1    4    1         0.1936177269E-01      0.8834758791E-01
          0                 4           2             1    4     1       0.3347039658E-03       1    4    1         0.8696781248E-02      0.3828231190E-01
          0                 5           2             1    4     1       0.1503393006E-03       1    4    1         0.3906348795E-02      0.1703385098E-01
          0                 6           1             1    4     1       0.6752789127E-04       1    4    1         0.1754617707E-02      0.7611158594E-02
          0                 7           1             1    4     1       0.3033142518E-04       1    4    1         0.7881211561E-03      0.3403558020E-02
          0                 8           1             1    4     1       0.1362389819E-04       1    4    1         0.3539993195E-03      0.1522761478E-02
          0                 9           1             1    4     1       0.6119400368E-05       1    4    1         0.1590050086E-03      0.6819034747E-03

    ------------------------------------------------
       NWT REQUIRED            9 OUTER ITERATIONS 
       AND A TOTAL OF         14 INNER ITERATIONS.
    ------------------------------------------------

 NO OUTPUT CONTROL FOR STRESS PERIOD   24   TIME STEP   28
 
 SOLVING FOR HEAD 
                                                   Max.-Head-Change                         Max.-Flux-Residual
  Residual-Control   Outer-Iter.   Inner-Iter.     Column Row Layer    Maximum-Head-Change  Column Row Layer    Maximum-Flux-Residual          L2-NORM 
          0                 1           2             6   13     1       0.4545133424E-02       6   13    1         0.2421762268E+00      0.1001663671E+01
          0                 2           2             1    4     1       0.1657675544E-02       1    4    1         0.4307211272E-01      0.2382886254E+00
          0                 3           2             1    4     1       0.7445819288E-03       1    4    1         0.1934683397E-01      0.8834756021E-01
          0                 4           2             1    4     1       0.3344448520E-03       1    4    1         0.8690058662E-02      0.3824339165E-01
          0                 5           2             1    4     1       0.1502227035E-03       1    4    1         0.3903323662E-02      0.1701441999E-01
          0                 6           1             1    4     1       0.6747542623E-04       1    4    1         0.1753256458E-02      0.7602333702E-02
          0                 7           1             1    4     1       0.3030781845E-04       1    4    1         0.7875086433E-03      0.3399642536E-02
          0                 8           1             1    4     1       0.1361327672E-04       1    4    1         0.3537237206E-03      0.1520699391E-02
          0                 9           1             1    4     1       0.6114621496E-05       1    4    1         0.1588810058E-03      0.6803533952E-03

    ------------------------------------------------
       NWT REQUIRED            9 OUTER ITERATIONS 
       AND A TOTAL OF         14 INNER ITERATIONS.
    ------------------------------------------------

 NO OUTPUT CONTROL FOR STRESS PERIOD   24   TIME STEP   29
 
 SOLVING FOR HEAD 
                                                   Max.-Head-Change                         Max.-Flux-Residual
  Residual-Control   Outer-Iter.   Inner-Iter.     Column Row Layer    Maximum-Head-Change  Column Row Layer    Maximum-Flux-Residual          L2-NORM 
          0                 1           2             6   13     1       0.4448863680E-02       6   13    1         0.2370002498E+00      0.1009489680E+01
          0                 2           2             1    4     1       0.1656330195E-02       1    4    1         0.4303719876E-01      0.2390148111E+00
          0                 3           2             1    4     1       0.7439767429E-03       1    4    1         0.1933112804E-01      0.8832096318E-01
          0                 4           2             1    4     1       0.3341726259E-03       1    4    1         0.8682993612E-02      0.3820695811E-01
          0                 5           2             1    4     1       0.1501002534E-03       1    4    1         0.3900145661E-02      0.1699657960E-01
          0                 6           1             1    4     1       0.6742034852E-04       1    4    1         0.1751826970E-02      0.7594202566E-02
          0                 7           1             1    4     1       0.3028304520E-04       1    4    1         0.7868656675E-03      0.3395969154E-02
          0                 8           1             1    4     1       0.1360213452E-04       1    4    1         0.3534345243E-03      0.1519042499E-02
          0                 9           1             1    4     1       0.6109610271E-05       1    4    1         0.1587509358E-03      0.6796066278E-03

    ------------------------------------------------
       NWT REQUIRED            9 OUTER ITERATIONS 
       AND A TOTAL OF         14 INNER ITERATIONS.
    ------------------------------------------------

 NO OUTPUT CONTROL FOR STRESS PERIOD   24   TIME STEP   30



 STREAM LISTING     PERIOD     24   STEP       30

 LAYER ROW COL. STREAM  RCH.  FLOW INTO     FLOW TO   FLOW OUT OF   OVRLND.     DIRECT     STREAM       STREAM     STREAM     STREAM   STREAMBED  STREAMBED
                SEG.NO.  NO.  STRM. RCH.    AQUIFER    STRM. RCH.    RUNOFF     PRECIP       ET          HEAD       DEPTH      WIDTH   CONDCTNC.   GRADIENT

   1    1    1     1     1    3.5000E+00  8.3255E-02   3.4167E+00  0.000E+00  0.000E+00  0.000E+00  1.09371E+03  6.654E-01  5.047E+00  2.271E-02  1.222E+00
   1    2    2     1     2    3.4167E+00  1.2792E-01   3.2888E+00  0.000E+00  0.000E+00  0.000E+00  1.08872E+03  6.583E-01  4.995E+00  3.497E-02  1.219E+00
   1    3    3     1     3    3.2888E+00  1.0809E-01   3.1807E+00  0.000E+00  0.000E+00  0.000E+00  1.08307E+03  6.502E-01  4.935E+00  2.961E-02  1.217E+00
   1    3    4     1     4    3.1807E+00  9.8702E-02   3.0820E+00  0.000E+00  0.000E+00  0.000E+00  1.07805E+03  6.428E-01  4.882E+00  2.709E-02  1.214E+00
   1    4    5     2     1    1.0820E+00  2.4731E-01   8.3473E-01  0.000E+00  0.000E+00  0.000E+00  1.07210E+03  1.706E-01  1.200E+01  7.800E-02  1.057E+00
   1    5    6     2     2    8.3473E-01  1.8877E-01   6.4596E-01  0.000E+00  0.000E+00  0.000E+00  1.06666E+03  1.462E-01  1.200E+01  6.000E-02  1.049E+00
   1    6    6     2     3    6.4596E-01  1.8736E-01   4.5860E-01  0.000E+00  0.000E+00  0.000E+00  1.06192E+03  1.226E-01  1.200E+01  6.000E-02  1.041E+00
   1    7    6     2     4    4.5860E-01  1.8574E-01   2.7286E-01  0.000E+00  0.000E+00  0.000E+00  1.05717E+03  9.573E-02  1.200E+01  6.000E-02  1.032E+00
   1    8    6     2     5    2.7286E-01  1.8377E-01   8.9092E-02  0.000E+00  0.000E+00  0.000E+00  1.05242E+03  6.276E-02  1.200E+01  6.000E-02  1.021E+00
   1    3    5     3     1    2.0000E+00  2.8252E-01   1.7175E+00  0.000E+00  0.000E+00  0.000E+00  1.07555E+03  1.909E+00  9.636E+00  7.227E-02  1.955E+00
   1    3    6     3     2    1.7175E+00  2.4905E-01   1.4684E+00  0.000E+00  0.000E+00  0.000E+00  1.07264E+03  1.727E+00  8.909E+00  6.682E-02  1.864E+00
   1    3    7     3     3    1.4684E+00  1.9718E-01   1.2712E+00  0.000E+00  0.000E+00  0.000E+00  1.06987E+03  1.555E+00  8.218E+00  5.547E-02  1.777E+00
   1    4    8     3     4    1.2712E+00  2.2567E-01   1.0456E+00  0.000E+00  0.000E+00  0.000E+00  1.06682E+03  1.364E+00  7.455E+00  6.709E-02  1.682E+00
   1    5    8     3     5    1.0456E+00  1.5790E-01   8.8768E-01  0.000E+00  0.000E+00  0.000E+00  1.06362E+03  1.164E+00  6.655E+00  4.991E-02  1.582E+00
   1    6    8     3     6    8.8768E-01  5.5980E-02   8.3170E-01  0.000E+00  0.000E+00  0.000E+00  1.06158E+03  1.036E+00  6.145E+00  1.844E-02  1.518E+00
   1    5   10     4     1    1.0000E+01  9.0919E-02   9.9091E+00  0.000E+00  0.000E+00  0.000E+00  1.07836E+03  6.368E-01  1.000E+01  2.500E-02  1.212E+00
   1    5    9     4     2    9.9091E+00  1.8158E-01   9.7275E+00  0.000E+00  0.000E+00  0.000E+00  1.07154E+03  6.315E-01  1.000E+01  5.000E-02  1.211E+00
   1    6    8     4     3    9.7275E+00  1.2689E-01   9.6006E+00  0.000E+00  0.000E+00  0.000E+00  1.06381E+03  6.256E-01  1.000E+01  3.500E-02  1.209E+00
   1    6    8     5     1    1.0432E+01  2.2686E-01   1.0205E+01  0.000E+00  0.000E+00  0.000E+00  1.05868E+03  6.790E-01  1.542E+01  6.166E-02  1.226E+00
   1    7    7     5     2    1.0205E+01  2.7894E-01   9.9265E+00  0.000E+00  0.000E+00  0.000E+00  1.05417E+03  6.732E-01  1.519E+01  7.594E-02  1.224E+00
   1    8    7     5     3    9.9265E+00  1.9221E-01   9.7343E+00  0.000E+00  0.000E+00  0.000E+00  1.04992E+03  6.676E-01  1.497E+01  5.241E-02  1.223E+00
   1    8    6     5     4    9.7343E+00  1.3577E-01   9.5985E+00  0.000E+00  0.000E+00  0.000E+00  1.04691E+03  6.637E-01  1.482E+01  3.706E-02  1.221E+00
   1    9    6     6     1    9.6876E+00  2.2120E-01   9.4664E+00  0.000E+00  0.000E+00  0.000E+00  1.04341E+03  6.866E-01  1.200E+01  6.000E-02  1.229E+00
   1   10    7     6     2    9.4664E+00  2.2062E-01   9.2458E+00  0.000E+00  0.000E+00  0.000E+00  1.03886E+03  6.771E-01  1.200E+01  6.000E-02  1.226E+00
   1   11    7     6     3    9.2458E+00  2.2005E-01   9.0258E+00  0.000E+00  0.000E+00  0.000E+00  1.03430E+03  6.674E-01  1.200E+01  6.000E-02  1.222E+00
   1   12    7     6     4    9.0258E+00  2.1947E-01   8.8063E+00  0.000E+00  0.000E+00  0.000E+00  1.02975E+03  6.578E-01  1.200E+01  6.000E-02  1.219E+00
   1   13    7     6     5    8.8063E+00 -2.1285E-01   9.0191E+00  0.000E+00  0.000E+00  0.000E+00  1.02657E+03  6.576E-01  1.200E+01  2.400E-01 -2.956E-01
   1   14    9     7     1    1.5000E+02  1.1765E+00   1.4882E+02  0.000E+00  0.000E+00  0.000E+00  1.03987E+03  2.288E+00  5.530E+01  5.593E-01  7.011E-01
   1   13    8     7     2    1.4882E+02  1.6239E+00   1.4720E+02  0.000E+00  0.000E+00  0.000E+00  1.03478E+03  2.281E+00  5.526E+01  6.149E-01  8.804E-01
   1   13    7     7     3    1.4720E+02  1.2506E+00   1.4595E+02  0.000E+00  0.000E+00  0.000E+00  1.02969E+03  2.273E+00  5.523E+01  5.586E-01  7.463E-01
   1   13    6     8     1    1.5497E+02  6.2380E-01   1.5434E+02  0.000E+00  0.000E+00  0.000E+00  1.02472E+03  2.849E+00  4.132E+01  4.210E-01  4.939E-01
   1   13    5     8     2    1.5434E+02 -5.4020E-01   1.5488E+02  0.000E+00  0.000E+00  0.000E+00  1.01847E+03  2.849E+00  4.131E+01  4.210E+00 -4.277E-02
   1   13    4     8     3    1.5488E+02 -3.5186E+00   1.5840E+02  0.000E+00  0.000E+00  0.000E+00  1.01224E+03  2.863E+00  4.151E+01  4.230E+00 -2.773E-01
   1   13    3     8     4    1.5840E+02 -4.3393E+00   1.6274E+02  0.000E+00  0.000E+00  0.000E+00  1.00601E+03  2.890E+00  4.190E+01  4.270E+00 -3.388E-01
   1   13    2     8     5    1.6274E+02 -2.8165E+00   1.6556E+02  0.000E+00  0.000E+00  0.000E+00  9.99789E+02  2.914E+00  4.225E+01  4.305E+00 -2.181E-01
   1   13    1     8     6    1.6556E+02 -2.0208E+00   1.6758E+02  0.000E+00  0.000E+00  0.000E+00  9.94805E+02  2.930E+00  4.248E+01  2.597E+00 -2.593E-01
   1    6    8     9     1    0.0000E+00  0.0000E+00   0.0000E+00  0.000E+00  0.000E+00  0.000E+00  1.07850E+03  0.000E+00  4.000E+00  0.000E+00  1.000E+00





UNSATURATED ZONE PACKAGE VOLUMETRIC BUDGET FOR  TIME STEP    30 STRESS PERIOD   24
  ------------------------------------------------------------------------------



     CUMULATIVE VOLUMES      L**3       RATES FOR THIS TIME STEP      L**3/T
     ------------------                 ------------------------

           IN:                                      IN:
           ---                                      ---
        INFILTRATION =    44597671.4802          INFILTRATION =       0.0000E+00

          OUT:                                     OUT:
          ----                                     ----
              UZF ET =   571719376.0452                UZF ET =       0.0000E+00
        UZF RECHARGE =  1327401981.5342          UZF RECHARGE =          16.9931

            IN - OUT = -1854523686.0992              IN - OUT =         -16.9931

          STORAGE:                                 STORAGE:
          --------                                 --------
      STORAGE CHANGE = -1854497478.1533        STORAGE CHANGE =         -16.9931

 PERCENT DISCREPANCY IS DIFFERENCE BETWEEN IN-OUT MINUS CHANGE IN STORAGE
 DIVIDED BY THE AVERAGE OF IN AND OUT TIMES 100

 PERCENT DISCREPANCY =          -0.00     PERCENT DISCREPANCY =           0.00






1
  VOLUMETRIC BUDGET FOR ENTIRE MODEL AT END OF TIME STEP   30, STRESS PERIOD  24
  ------------------------------------------------------------------------------

     CUMULATIVE VOLUMES      L**3       RATES FOR THIS TIME STEP      L**3/T
     ------------------                 ------------------------

           IN:                                      IN:
           ---                                      ---
             STORAGE     =    79603112.0000               STORAGE     =           0.1637
       CONSTANT HEAD     =           0.0000         CONSTANT HEAD     =           0.0000
               WELLS     =           0.0000                 WELLS     =           0.0000
     HEAD DEP BOUNDS     =    16611788.0000       HEAD DEP BOUNDS     =           0.2749
      STREAM LEAKAGE     =   657350336.0000        STREAM LEAKAGE     =           9.3684
        UZF RECHARGE     =  1327402752.0000          UZF RECHARGE     =          16.9931
               GW ET     =           0.0000                 GW ET     =           0.0000
     SURFACE LEAKAGE     =           0.0000       SURFACE LEAKAGE     =           0.0000
    SUPPLEMENTARY WELLS  =           0.0000      SUPPLEMENTARY WELLS  =           0.0000

                TOTAL IN =  2080967936.0000                  TOTAL IN =          26.8002

          OUT:                                     OUT:
          ----                                     ----
             STORAGE     =  1218024832.0000               STORAGE     =          13.0444
       CONSTANT HEAD     =           0.0000         CONSTANT HEAD     =           0.0000
               WELLS     =           0.0000                 WELLS     =           0.0000
     HEAD DEP BOUNDS     =    17366426.0000       HEAD DEP BOUNDS     =           0.2881
      STREAM LEAKAGE     =   662153408.0000        STREAM LEAKAGE     =          13.4482
        UZF RECHARGE     =           0.0000          UZF RECHARGE     =           0.0000
               GW ET     =   183193664.0000                 GW ET     =       1.7500E-02
     SURFACE LEAKAGE     =           0.0000       SURFACE LEAKAGE     =           0.0000
    SUPPLEMENTARY WELLS  =      324965.9062      SUPPLEMENTARY WELLS  =           0.0000

               TOTAL OUT =  2081063296.0000                 TOTAL OUT =          26.7983

                IN - OUT =      -95360.0000                  IN - OUT =       1.8826E-03

     PERCENT DISCREPANCY =          -0.00         PERCENT DISCREPANCY =           0.01






         TIME SUMMARY AT END OF TIME STEP   30 IN STRESS PERIOD   24
                    SECONDS     MINUTES      HOURS       DAYS        YEARS
                    -----------------------------------------------------------
   TIME STEP LENGTH  87600.      1460.0      24.333      1.0139     2.77588E-03
 STRESS PERIOD TIME 2.62800E+06  43800.      730.00      30.417     8.32763E-02
         TOTAL TIME 6.05304E+07 1.00884E+06  16814.      700.58      1.9181    
1
1
                            STRESS PERIOD NO.   25, LENGTH =   2628000.    
                            -----------------------------------------------

                              NUMBER OF TIME STEPS =    30

                               MULTIPLIER FOR DELT =     1.000

                            INITIAL TIME STEP SIZE =   87600.00    

 WELL NO.  LAYER   ROW   COL   STRESS RATE         
 --------------------------------------------------
      1      1      6      4       0.000    
      2      1      6      7       0.000    
      3      1      7      4       0.000    
      4      1      7      5       0.000    
      5      1      8      4       0.000    
      6      1      8      5       0.000    
      7      1      9      4       0.000    
      8      1      9      5       0.000    
      9      1     10      4       0.000    
     10      1     10      5       0.000    

     10 WELLS

 REUSING NON-PARAMETER GHB CELLS FROM LAST STRESS PERIOD

      2 GHB CELLS

 REUSING STREAM SEGMENT DATA FROM LAST STRESS PERIOD



            AREAL INFILTRATION RATE
 READING ON UNIT   19 WITH FORMAT: (10F4.0)            

            1           2           3           4           5           6           7           8           9          10
 ........................................................................................................................
   1    0.000       0.000       0.000       0.000       0.000       0.000       0.000       0.000       0.000       0.000    
   2    0.000       0.000       0.000       0.000       0.000       0.000       0.000       0.000       0.000       0.000    
   3    0.000       0.000       0.000       0.000       0.000       0.000       0.000       0.000       0.000       0.000    
   4    0.000       0.000       0.000       0.000       0.000       0.000       0.000       0.000       0.000       0.000    
   5    0.000       0.000       0.000       0.000       0.000       0.000       0.000       0.000       0.000       0.000    
   6    0.000       0.000       0.000       0.000       0.000       0.000       0.000       0.000       0.000       0.000    
   7    0.000       0.000       0.000       0.000       0.000       0.000       0.000       0.000       0.000       0.000    
   8    0.000       0.000       0.000       0.000       0.000       0.000       0.000       0.000       0.000       0.000    
   9    0.000       0.000       0.000       0.000       0.000       0.000       0.000       0.000       0.000       0.000    
  10    0.000       0.000       0.000       0.000       0.000       0.000       0.000       0.000       0.000       0.000    
  11    0.000       0.000       0.000       0.000       0.000       0.000       0.000       0.000       0.000       0.000    
  12    0.000       0.000       0.000       0.000       0.000       0.000       0.000       0.000       0.000       0.000    
  13    0.000       0.000       0.000       0.000       0.000       0.000       0.000       0.000       0.000       0.000    
  14    0.000       0.000       0.000       0.000       0.000       0.000       0.000       0.000       0.000       0.000    
  15    0.000       0.000       0.000       0.000       0.000       0.000       0.000       0.000       0.000       0.000    

                  ET RATE =  1.000000E-10

 USING ET EXTINCTION DEPTH FROM PREVIOUS STRESS PERIOD. CURRENT PERIOD IS:      25

 USING EXTINCTION WATER CONTENT FROM PREVIOUS STRESS PERIOD. CURRENT PERIOD IS:      25

 PROCESSING AGO STRESS PERIOD DATA

 READING AGO STRESS PERIOD DATA

 READING IRRIGATION STREAM

 READING IRRIGATION WELL

 READING SUPPLEMENTAL WEL

 END PROCESSING AGO STRESS PERIOD DATA OPTIONS
 
 SOLVING FOR HEAD 
                                                   Max.-Head-Change                         Max.-Flux-Residual
  Residual-Control   Outer-Iter.   Inner-Iter.     Column Row Layer    Maximum-Head-Change  Column Row Layer    Maximum-Flux-Residual          L2-NORM 
          0                 1           2             6   13     1       0.4348159857E-02       6   13    1         0.2316146827E+00      0.1005000665E+01
          0                 2           2             1    4     1       0.1655051893E-02       1    4    1         0.4300403278E-01      0.2386218676E+00
          0                 3           2             1    4     1       0.7434015490E-03       1    4    1         0.1931620403E-01      0.8823389795E-01
          0                 4           2             1    4     1       0.3339138155E-03       1    4    1         0.8676278331E-02      0.3817004802E-01
          0                 5           2             1    4     1       0.1499838042E-03       1    4    1         0.3897124114E-02      0.1697965128E-01
          0                 6           1             1    4     1       0.6736795526E-04       1    4    1         0.1750467466E-02      0.7586433544E-02
          0                 7           1             1    4     1       0.3025947298E-04       1    4    1         0.7862539944E-03      0.3392419828E-02
          0                 8           1             1    4     1       0.1359152906E-04       1    4    1         0.3531593209E-03      0.1517427170E-02
          0                 9           1             1    4     1       0.6104839153E-05       1    4    1         0.1586271222E-03      0.6788735440E-03

    ------------------------------------------------
       NWT REQUIRED            9 OUTER ITERATIONS 
       AND A TOTAL OF         14 INNER ITERATIONS.
    ------------------------------------------------

 NO OUTPUT CONTROL FOR STRESS PERIOD   25   TIME STEP    1
 
 SOLVING FOR HEAD 
                                                   Max.-Head-Change                         Max.-Flux-Residual
  Residual-Control   Outer-Iter.   Inner-Iter.     Column Row Layer    Maximum-Head-Change  Column Row Layer    Maximum-Flux-Residual          L2-NORM 
          0                 1           2             6   13     1       0.4250197373E-02       6   13    1         0.2263752786E+00      0.1000842663E+01
          0                 2           2             1    4     1       0.1653774223E-02       1    4    1         0.4297087906E-01      0.2382117853E+00
          0                 3           2             1    4     1       0.7428267256E-03       1    4    1         0.1930128780E-01      0.8812728145E-01
          0                 4           2             1    4     1       0.3336552109E-03       1    4    1         0.8669567562E-02      0.3812497847E-01
          0                 5           2             1    4     1       0.1498674656E-03       1    4    1         0.3894105055E-02      0.1695953980E-01
          0                 6           1             1    4     1       0.6731561928E-04       1    4    1         0.1749109284E-02      0.7577419157E-02
          0                 7           1             1    4     1       0.3023593003E-04       1    4    1         0.7856430090E-03      0.3388377361E-02
          0                 8           1             1    4     1       0.1358093861E-04       1    4    1         0.3528844724E-03      0.1515614250E-02
          0                 9           1             1    4     1       0.6100075038E-05       1    4    1         0.1585034862E-03      0.6780603017E-03

    ------------------------------------------------
       NWT REQUIRED            9 OUTER ITERATIONS 
       AND A TOTAL OF         14 INNER ITERATIONS.
    ------------------------------------------------

 NO OUTPUT CONTROL FOR STRESS PERIOD   25   TIME STEP    2
 
 SOLVING FOR HEAD 
                                                   Max.-Head-Change                         Max.-Flux-Residual
  Residual-Control   Outer-Iter.   Inner-Iter.     Column Row Layer    Maximum-Head-Change  Column Row Layer    Maximum-Flux-Residual          L2-NORM 
          0                 1           2             2    1     1       0.4242850906E-02       6   13    1         0.2212773327E+00      0.9966931467E+00
          0                 2           2             1    4     1       0.1652496660E-02       1    4    1         0.4293773380E-01      0.2377757795E+00
          0                 3           2             1    4     1       0.7422518323E-03       1    4    1         0.1928637227E-01      0.8801914020E-01
          0                 4           2             1    4     1       0.3333965216E-03       1    4    1         0.8662855725E-02      0.3808039581E-01
          0                 5           2             1    4     1       0.1497510649E-03       1    4    1         0.3891084897E-02      0.1693964895E-01
          0                 6           1             1    4     1       0.6726324527E-04       1    4    1         0.1747750337E-02      0.7568467602E-02
          0                 7           1             1    4     1       0.3021236507E-04       1    4    1         0.7850315568E-03      0.3384348108E-02
          0                 8           1             1    4     1       0.1357033641E-04       1    4    1         0.3526093626E-03      0.1513801903E-02
          0                 9           1             1    4     1       0.6095305170E-05       1    4    1         0.1583797087E-03      0.6772461490E-03

    ------------------------------------------------
       NWT REQUIRED            9 OUTER ITERATIONS 
       AND A TOTAL OF         14 INNER ITERATIONS.
    ------------------------------------------------

 NO OUTPUT CONTROL FOR STRESS PERIOD   25   TIME STEP    3
 
 SOLVING FOR HEAD 
                                                   Max.-Head-Change                         Max.-Flux-Residual
  Residual-Control   Outer-Iter.   Inner-Iter.     Column Row Layer    Maximum-Head-Change  Column Row Layer    Maximum-Flux-Residual          L2-NORM 
          0                 1           2             2    1     1       0.4236342606E-02       2    1    1         0.2201143592E+00      0.9927749237E+00
          0                 2           2             1    4     1       0.1651153522E-02       1    4    1         0.4290287413E-01      0.2373644121E+00
          0                 3           2             1    4     1       0.7416477046E-03       1    4    1         0.1927069245E-01      0.8791555536E-01
          0                 4           2             1    4     1       0.3331247997E-03       1    4    1         0.8655803169E-02      0.3803728353E-01
          0                 5           2             1    4     1       0.1496288544E-03       1    4    1         0.3887912849E-02      0.1692030525E-01
          0                 6           1             1    4     1       0.6720828087E-04       1    4    1         0.1746323673E-02      0.7559722970E-02
          0                 7           1             1    4     1       0.3018764534E-04       1    4    1         0.7843899173E-03      0.3380396305E-02
          0                 8           1             1    4     1       0.1355921922E-04       1    4    1         0.3523207964E-03      0.1512018641E-02
          0                 9           1             1    4     1       0.6090305950E-05       1    4    1         0.1582499362E-03      0.6764429070E-03

    ------------------------------------------------
       NWT REQUIRED            9 OUTER ITERATIONS 
       AND A TOTAL OF         14 INNER ITERATIONS.
    ------------------------------------------------

 NO OUTPUT CONTROL FOR STRESS PERIOD   25   TIME STEP    4
 
 SOLVING FOR HEAD 
                                                   Max.-Head-Change                         Max.-Flux-Residual
  Residual-Control   Outer-Iter.   Inner-Iter.     Column Row Layer    Maximum-Head-Change  Column Row Layer    Maximum-Flux-Residual          L2-NORM 
          0                 1           2             2    1     1       0.4229881623E-02       2    1    1         0.2197772687E+00      0.9889906958E+00
          0                 2           2             1    4     1       0.1649878124E-02       1    4    1         0.4286977532E-01      0.2369751460E+00
          0                 3           2             1    4     1       0.7410739889E-03       1    4    1         0.1925580317E-01      0.8781650143E-01
          0                 4           2             1    4     1       0.3328667309E-03       1    4    1         0.8649105516E-02      0.3799473204E-01
          0                 5           2             1    4     1       0.1495127731E-03       1    4    1         0.3884900123E-02      0.1690079247E-01
          0                 6           1             1    4     1       0.6715606794E-04       1    4    1         0.1744968529E-02      0.7550781282E-02
          0                 7           1             1    4     1       0.3016416067E-04       1    4    1         0.7837803796E-03      0.3376321014E-02
          0                 8           1             1    4     1       0.1354865653E-04       1    4    1         0.3520466351E-03      0.1510169085E-02
          0                 9           1             1    4     1       0.6085554841E-05       1    4    1         0.1581266237E-03      0.6756054191E-03

    ------------------------------------------------
       NWT REQUIRED            9 OUTER ITERATIONS 
       AND A TOTAL OF         14 INNER ITERATIONS.
    ------------------------------------------------

 NO OUTPUT CONTROL FOR STRESS PERIOD   25   TIME STEP    5
 
 SOLVING FOR HEAD 
                                                   Max.-Head-Change                         Max.-Flux-Residual
  Residual-Control   Outer-Iter.   Inner-Iter.     Column Row Layer    Maximum-Head-Change  Column Row Layer    Maximum-Flux-Residual          L2-NORM 
          0                 1           2             2    1     1       0.4223467527E-02       2    1    1         0.2194426257E+00      0.9854551983E+00
          0                 2           2             1    4     1       0.1648603137E-02       1    4    1         0.4283669296E-01      0.2364706264E+00
          0                 3           2             1    4     1       0.7405003362E-03       1    4    1         0.1924091810E-01      0.8764220686E-01
          0                 4           2             1    4     1       0.3326086360E-03       1    4    1         0.8642408340E-02      0.3791909365E-01
          0                 5           2             1    4     1       0.1493966560E-03       1    4    1         0.3881886981E-02      0.1686737101E-01
          0                 6           1             1    4     1       0.6710382800E-04       1    4    1         0.1743612917E-02      0.7536000324E-02
          0                 7           1             1    4     1       0.3014065923E-04       1    4    1         0.7831705075E-03      0.3369785794E-02
          0                 8           1             1    4     1       0.1353808434E-04       1    4    1         0.3517722713E-03      0.1507281799E-02
          0                 9           1             1    4     1       0.6080798979E-05       1    4    1         0.1580031949E-03      0.6743322629E-03

    ------------------------------------------------
       NWT REQUIRED            9 OUTER ITERATIONS 
       AND A TOTAL OF         14 INNER ITERATIONS.
    ------------------------------------------------

 NO OUTPUT CONTROL FOR STRESS PERIOD   25   TIME STEP    6
 
 SOLVING FOR HEAD 
                                                   Max.-Head-Change                         Max.-Flux-Residual
  Residual-Control   Outer-Iter.   Inner-Iter.     Column Row Layer    Maximum-Head-Change  Column Row Layer    Maximum-Flux-Residual          L2-NORM 
          0                 1           2             2    1     1       0.4217099753E-02       2    1    1         0.2191104109E+00      0.9823485297E+00
          0                 2           2             1    4     1       0.1647262857E-02       1    4    1         0.4280190360E-01      0.2361176980E+00
          0                 3           2             1    4     1       0.7398975753E-03       1    4    1         0.1922527203E-01      0.8753691591E-01
          0                 4           2             1    4     1       0.3323375647E-03       1    4    1         0.8635371900E-02      0.3787399860E-01
          0                 5           2             1    4     1       0.1492747539E-03       1    4    1         0.3878722594E-02      0.1684731735E-01
          0                 6           1             1    4     1       0.6704900916E-04       1    4    1         0.1742189882E-02      0.7527039280E-02
          0                 7           1             1    4     1       0.3011600829E-04       1    4    1         0.7825305835E-03      0.3365777945E-02
          0                 8           1             1    4     1       0.1352699941E-04       1    4    1         0.3514845099E-03      0.1505487006E-02
          0                 9           1             1    4     1       0.6075814266E-05       1    4    1         0.1578737985E-03      0.6735259899E-03

    ------------------------------------------------
       NWT REQUIRED            9 OUTER ITERATIONS 
       AND A TOTAL OF         14 INNER ITERATIONS.
    ------------------------------------------------

 NO OUTPUT CONTROL FOR STRESS PERIOD   25   TIME STEP    7
 
 SOLVING FOR HEAD 
                                                   Max.-Head-Change                         Max.-Flux-Residual
  Residual-Control   Outer-Iter.   Inner-Iter.     Column Row Layer    Maximum-Head-Change  Column Row Layer    Maximum-Flux-Residual          L2-NORM 
          0                 1           2             2    1     1       0.4210777943E-02       2    1    1         0.2187805916E+00      0.9795535333E+00
          0                 2           2             1    4     1       0.1645990015E-02       1    4    1         0.4276887432E-01      0.2358172432E+00
          0                 3           2             1    4     1       0.7393249419E-03       1    4    1         0.1921041226E-01      0.8744829416E-01
          0                 4           2             1    4     1       0.3320799531E-03       1    4    1         0.8628686743E-02      0.3783550306E-01
          0                 5           2             1    4     1       0.1491588647E-03       1    4    1         0.3875715142E-02      0.1682994237E-01
          0                 6           1             1    4     1       0.6699687676E-04       1    4    1         0.1740836960E-02      0.7519178620E-02
          0                 7           1             1    4     1       0.3009255763E-04       1    4    1         0.7819219837E-03      0.3362222065E-02
          0                 8           1             1    4     1       0.1351645048E-04       1    4    1         0.3512107414E-03      0.1503879506E-02
          0                 9           1             1    4     1       0.6071069660E-05       1    4    1         0.1577506568E-03      0.6727997691E-03

    ------------------------------------------------
       NWT REQUIRED            9 OUTER ITERATIONS 
       AND A TOTAL OF         14 INNER ITERATIONS.
    ------------------------------------------------

 NO OUTPUT CONTROL FOR STRESS PERIOD   25   TIME STEP    8
 
 SOLVING FOR HEAD 
                                                   Max.-Head-Change                         Max.-Flux-Residual
  Residual-Control   Outer-Iter.   Inner-Iter.     Column Row Layer    Maximum-Head-Change  Column Row Layer    Maximum-Flux-Residual          L2-NORM 
          0                 1           2             2    1     1       0.4204501649E-02       2    1    1         0.2184531540E+00      0.9768391195E+00
          0                 2           2             1    4     1       0.1644652288E-02       1    4    1         0.4273414614E-01      0.2355089425E+00
          0                 3           2             1    4     1       0.7387234358E-03       1    4    1         0.1919479651E-01      0.8735552360E-01
          0                 4           2             1    4     1       0.3318094930E-03       1    4    1         0.8621665178E-02      0.3779534268E-01
          0                 5           2             1    4     1       0.1490372587E-03       1    4    1         0.3872557998E-02      0.1681187543E-01
          0                 6           1             1    4     1       0.6694220074E-04       1    4    1         0.1739417425E-02      0.7511024960E-02
          0                 7           1             1    4     1       0.3006797446E-04       1    4    1         0.7812837346E-03      0.3358545108E-02
          0                 8           1             1    4     1       0.1350539807E-04       1    4    1         0.3509237826E-03      0.1502222793E-02
          0                 9           1             1    4     1       0.6066100704E-05       1    4    1         0.1576216406E-03      0.6720538090E-03

    ------------------------------------------------
       NWT REQUIRED            9 OUTER ITERATIONS 
       AND A TOTAL OF         14 INNER ITERATIONS.
    ------------------------------------------------

 NO OUTPUT CONTROL FOR STRESS PERIOD   25   TIME STEP    9
 
 SOLVING FOR HEAD 
                                                   Max.-Head-Change                         Max.-Flux-Residual
  Residual-Control   Outer-Iter.   Inner-Iter.     Column Row Layer    Maximum-Head-Change  Column Row Layer    Maximum-Flux-Residual          L2-NORM 
          0                 1           2             2    1     1       0.4198245902E-02       2    1    1         0.2181267949E+00      0.9742349366E+00
          0                 2           2             1    4     1       0.1643382164E-02       1    4    1         0.4270118501E-01      0.2351763094E+00
          0                 3           2             1    4     1       0.7381520749E-03       1    4    1         0.1917996870E-01      0.8724619062E-01
          0                 4           2             1    4     1       0.3315524761E-03       1    4    1         0.8614994986E-02      0.3774875647E-01
          0                 5           2             1    4     1       0.1489216472E-03       1    4    1         0.3869557538E-02      0.1679151813E-01
          0                 6           1             1    4     1       0.6689019765E-04       1    4    1         0.1738067765E-02      0.7502066071E-02
          0                 7           1             1    4     1       0.3004458408E-04       1    4    1         0.7806766514E-03      0.3354583879E-02
          0                 8           1             1    4     1       0.1349487715E-04       1    4    1         0.3506507174E-03      0.1500464807E-02
          0                 9           1             1    4     1       0.6061368603E-05       1    4    1         0.1574988238E-03      0.6712714591E-03

    ------------------------------------------------
       NWT REQUIRED            9 OUTER ITERATIONS 
       AND A TOTAL OF         14 INNER ITERATIONS.
    ------------------------------------------------

 NO OUTPUT CONTROL FOR STRESS PERIOD   25   TIME STEP   10
 
 SOLVING FOR HEAD 
                                                   Max.-Head-Change                         Max.-Flux-Residual
  Residual-Control   Outer-Iter.   Inner-Iter.     Column Row Layer    Maximum-Head-Change  Column Row Layer    Maximum-Flux-Residual          L2-NORM 
          0                 1           2             2    1     1       0.4192059390E-02       2    1    1         0.2178040513E+00      0.9717149196E+00
          0                 2           2             1    4     1       0.1642046722E-02       1    4    1         0.4266652077E-01      0.2347661741E+00
          0                 3           2             1    4     1       0.7375514992E-03       1    4    1         0.1916437916E-01      0.8707894520E-01
          0                 4           2             1    4     1       0.3312823915E-03       1    4    1         0.8607984078E-02      0.3766989518E-01
          0                 5           2             1    4     1       0.1488001907E-03       1    4    1         0.3866404683E-02      0.1675447578E-01
          0                 6           1             1    4     1       0.6683558040E-04       1    4    1         0.1736649937E-02      0.7484794718E-02
          0                 7           1             1    4     1       0.3002002367E-04       1    4    1         0.7800390696E-03      0.3346577623E-02
          0                 8           1             1    4     1       0.1348383325E-04       1    4    1         0.3503640135E-03      0.1496772167E-02
          0                 9           1             1    4     1       0.6056402648E-05       1    4    1         0.1573698999E-03      0.6695762145E-03

    ------------------------------------------------
       NWT REQUIRED            9 OUTER ITERATIONS 
       AND A TOTAL OF         14 INNER ITERATIONS.
    ------------------------------------------------

 NO OUTPUT CONTROL FOR STRESS PERIOD   25   TIME STEP   11
 
 SOLVING FOR HEAD 
                                                   Max.-Head-Change                         Max.-Flux-Residual
  Residual-Control   Outer-Iter.   Inner-Iter.     Column Row Layer    Maximum-Head-Change  Column Row Layer    Maximum-Flux-Residual          L2-NORM 
          0                 1           2             2    1     1       0.4185917068E-02       2    1    1         0.2174836161E+00      0.9690109414E+00
          0                 2           2             1    4     1       0.1640712867E-02       1    4    1         0.4263189659E-01      0.2342409567E+00
          0                 3           2             1    4     1       0.7369516617E-03       1    4    1         0.1914880827E-01      0.8686441825E-01
          0                 4           2             1    4     1       0.3310126500E-03       1    4    1         0.8600981846E-02      0.3757565495E-01
          0                 5           2             1    4     1       0.1486788931E-03       1    4    1         0.3863255854E-02      0.1671326039E-01
          0                 6           1             1    4     1       0.6678103643E-04       1    4    1         0.1735233978E-02      0.7466786493E-02
          0                 7           1             1    4     1       0.2999549753E-04       1    4    1         0.7794023617E-03      0.3338705448E-02
          0                 8           1             1    4     1       0.1347280535E-04       1    4    1         0.3500777141E-03      0.1493327697E-02
          0                 9           1             1    4     1       0.6051443696E-05       1    4    1         0.1572411633E-03      0.6680671900E-03

    ------------------------------------------------
       NWT REQUIRED            9 OUTER ITERATIONS 
       AND A TOTAL OF         14 INNER ITERATIONS.
    ------------------------------------------------

 NO OUTPUT CONTROL FOR STRESS PERIOD   25   TIME STEP   12
 
 SOLVING FOR HEAD 
                                                   Max.-Head-Change                         Max.-Flux-Residual
  Residual-Control   Outer-Iter.   Inner-Iter.     Column Row Layer    Maximum-Head-Change  Column Row Layer    Maximum-Flux-Residual          L2-NORM 
          0                 1           2             2    1     1       0.4179793964E-02       2    1    1         0.2171641915E+00      0.9668546776E+00
          0                 2           2             1    4     1       0.1639447336E-02       1    4    1         0.4259904682E-01      0.2339933734E+00
          0                 3           2             1    4     1       0.7363825300E-03       1    4    1         0.1913403486E-01      0.8678106867E-01
          0                 4           2             1    4     1       0.3307567071E-03       1    4    1         0.8594338012E-02      0.3753769687E-01
          0                 5           2             1    4     1       0.1485637963E-03       1    4    1         0.3860268085E-02      0.1669576535E-01
          0                 6           1             1    4     1       0.6672927896E-04       1    4    1         0.1733890392E-02      0.7458765426E-02
          0                 7           1             1    4     1       0.2997222320E-04       1    4    1         0.7787981701E-03      0.3335044730E-02
          0                 8           1             1    4     1       0.1346233946E-04       1    4    1         0.3498060230E-03      0.1491662799E-02
          0                 9           1             1    4     1       0.6046738107E-05       1    4    1         0.1571189969E-03      0.6673116853E-03

    ------------------------------------------------
       NWT REQUIRED            9 OUTER ITERATIONS 
       AND A TOTAL OF         14 INNER ITERATIONS.
    ------------------------------------------------

 NO OUTPUT CONTROL FOR STRESS PERIOD   25   TIME STEP   13
 
 SOLVING FOR HEAD 
                                                   Max.-Head-Change                         Max.-Flux-Residual
  Residual-Control   Outer-Iter.   Inner-Iter.     Column Row Layer    Maximum-Head-Change  Column Row Layer    Maximum-Flux-Residual          L2-NORM 
          0                 1           2             2    1     1       0.4173738828E-02       2    1    1         0.2168483141E+00      0.9645244764E+00
          0                 2           2             1    4     1       0.1638116681E-02       1    4    1         0.4256450354E-01      0.2336604341E+00
          0                 3           2             1    4     1       0.7357841763E-03       1    4    1         0.1911850154E-01      0.8667310697E-01
          0                 4           2             1    4     1       0.3304876526E-03       1    4    1         0.8587353191E-02      0.3749189501E-01
          0                 5           2             1    4     1       0.1484428163E-03       1    4    1         0.3857127314E-02      0.1667553797E-01
          0                 6           1             1    4     1       0.6667488180E-04       1    4    1         0.1732478159E-02      0.7449759848E-02
          0                 7           1             1    4     1       0.2994776509E-04       1    4    1         0.7781631809E-03      0.3331026839E-02
          0                 8           1             1    4     1       0.1345134257E-04       1    4    1         0.3495205120E-03      0.1489868424E-02
          0                 9           1             1    4     1       0.6041793662E-05       1    4    1         0.1569906247E-03      0.6665101447E-03

    ------------------------------------------------
       NWT REQUIRED            9 OUTER ITERATIONS 
       AND A TOTAL OF         14 INNER ITERATIONS.
    ------------------------------------------------

 NO OUTPUT CONTROL FOR STRESS PERIOD   25   TIME STEP   14
 
 SOLVING FOR HEAD 
                                                   Max.-Head-Change                         Max.-Flux-Residual
  Residual-Control   Outer-Iter.   Inner-Iter.     Column Row Layer    Maximum-Head-Change  Column Row Layer    Maximum-Flux-Residual          L2-NORM 
          0                 1           2             2    1     1       0.4167702127E-02       2    1    1         0.2165334021E+00      0.9617931356E+00
          0                 2           2             1    4     1       0.1636787856E-02       1    4    1         0.4253000670E-01      0.2332630729E+00
          0                 3           2             1    4     1       0.7351866681E-03       1    4    1         0.1910298968E-01      0.8656561174E-01
          0                 4           2             1    4     1       0.3302189883E-03       1    4    1         0.8580378293E-02      0.3744865246E-01
          0                 5           2             1    4     1       0.1483220167E-03       1    4    1         0.3853991127E-02      0.1665640105E-01
          0                 6           1             1    4     1       0.6662056769E-04       1    4    1         0.1731068035E-02      0.7441160019E-02
          0                 7           1             1    4     1       0.2992334450E-04       1    4    1         0.7775291596E-03      0.3327153858E-02
          0                 8           1             1    4     1       0.1344036295E-04       1    4    1         0.3492354530E-03      0.1488124461E-02
          0                 9           1             1    4     1       0.6036857721E-05       1    4    1         0.1568624667E-03      0.6657250463E-03

    ------------------------------------------------
       NWT REQUIRED            9 OUTER ITERATIONS 
       AND A TOTAL OF         14 INNER ITERATIONS.
    ------------------------------------------------

 NO OUTPUT CONTROL FOR STRESS PERIOD   25   TIME STEP   15
 
 SOLVING FOR HEAD 
                                                   Max.-Head-Change                         Max.-Flux-Residual
  Residual-Control   Outer-Iter.   Inner-Iter.     Column Row Layer    Maximum-Head-Change  Column Row Layer    Maximum-Flux-Residual          L2-NORM 
          0                 1           2             2    1     1       0.4161708026E-02       2    1    1         0.2162207211E+00      0.9591525104E+00
          0                 2           2             1    4     1       0.1635460941E-02       1    4    1         0.4249555838E-01      0.2329318112E+00
          0                 3           2             1    4     1       0.7345900407E-03       1    4    1         0.1908750022E-01      0.8646404987E-01
          0                 4           2             1    4     1       0.3299507300E-03       1    4    1         0.8573413723E-02      0.3740465886E-01
          0                 5           2             1    4     1       0.1482014034E-03       1    4    1         0.3850859696E-02      0.1663654265E-01
          0                 6           1             1    4     1       0.6656633961E-04       1    4    1         0.1729660108E-02      0.7432168944E-02
          0                 7           1             1    4     1       0.2989896393E-04       1    4    1         0.7768961483E-03      0.3323093549E-02
          0                 8           1             1    4     1       0.1342940183E-04       1    4    1         0.3489508522E-03      0.1486284372E-02
          0                 9           1             1    4     1       0.6031929282E-05       1    4    1         0.1567345087E-03      0.6648943904E-03

    ------------------------------------------------
       NWT REQUIRED            9 OUTER ITERATIONS 
       AND A TOTAL OF         14 INNER ITERATIONS.
    ------------------------------------------------

 NO OUTPUT CONTROL FOR STRESS PERIOD   25   TIME STEP   16
 
 SOLVING FOR HEAD 
                                                   Max.-Head-Change                         Max.-Flux-Residual
  Residual-Control   Outer-Iter.   Inner-Iter.     Column Row Layer    Maximum-Head-Change  Column Row Layer    Maximum-Flux-Residual          L2-NORM 
          0                 1           2             2    1     1       0.4155780760E-02       2    1    1         0.2159115218E+00      0.9572251858E+00
          0                 2           2             1    4     1       0.1634135633E-02       1    4    1         0.4246115514E-01      0.2325496027E+00
          0                 3           2             1    4     1       0.7339940651E-03       1    4    1         0.1907202918E-01      0.8629931084E-01
          0                 4           2             1    4     1       0.3296827328E-03       1    4    1         0.8566456604E-02      0.3733054093E-01
          0                 5           2             1    4     1       0.1480808941E-03       1    4    1         0.3847731247E-02      0.1660362793E-01
          0                 6           1             1    4     1       0.6651215131E-04       1    4    1         0.1728253346E-02      0.7417611009E-02
          0                 7           1             1    4     1       0.2987459811E-04       1    4    1         0.7762635919E-03      0.3316658203E-02
          0                 8           1             1    4     1       0.1341844647E-04       1    4    1         0.3486664306E-03      0.1483450649E-02
          0                 9           1             1    4     1       0.6027003345E-05       1    4    1         0.1566066205E-03      0.6636451679E-03

    ------------------------------------------------
       NWT REQUIRED            9 OUTER ITERATIONS 
       AND A TOTAL OF         14 INNER ITERATIONS.
    ------------------------------------------------

 NO OUTPUT CONTROL FOR STRESS PERIOD   25   TIME STEP   17
 
 SOLVING FOR HEAD 
                                                   Max.-Head-Change                         Max.-Flux-Residual
  Residual-Control   Outer-Iter.   Inner-Iter.     Column Row Layer    Maximum-Head-Change  Column Row Layer    Maximum-Flux-Residual          L2-NORM 
          0                 1           2             2    1     1       0.4149870635E-02       2    1    1         0.2156032302E+00      0.9554009314E+00
          0                 2           2             1    4     1       0.1632812433E-02       1    4    1         0.4242680114E-01      0.2323007158E+00
          0                 3           2             1    4     1       0.7333991524E-03       1    4    1         0.1905658330E-01      0.8620979217E-01
          0                 4           2             1    4     1       0.3294152648E-03       1    4    1         0.8559512142E-02      0.3729039571E-01
          0                 5           2             1    4     1       0.1479606455E-03       1    4    1         0.3844609090E-02      0.1658543347E-01
          0                 6           1             1    4     1       0.6645809055E-04       1    4    1         0.1726849684E-02      0.7409376550E-02
          0                 7           1             1    4     1       0.2985029482E-04       1    4    1         0.7756325490E-03      0.3312936939E-02
          0                 8           1             1    4     1       0.1340752012E-04       1    4    1         0.3483827329E-03      0.1481770564E-02
          0                 9           1             1    4     1       0.6022091915E-05       1    4    1         0.1564790899E-03      0.6630688351E-03

    ------------------------------------------------
       NWT REQUIRED            9 OUTER ITERATIONS 
       AND A TOTAL OF         14 INNER ITERATIONS.
    ------------------------------------------------

 NO OUTPUT CONTROL FOR STRESS PERIOD   25   TIME STEP   18
 
 SOLVING FOR HEAD 
                                                   Max.-Head-Change                         Max.-Flux-Residual
  Residual-Control   Outer-Iter.   Inner-Iter.     Column Row Layer    Maximum-Head-Change  Column Row Layer    Maximum-Flux-Residual          L2-NORM 
          0                 1           2             2    1     1       0.4144001974E-02       2    1    1         0.2152970999E+00      0.9536643945E+00
          0                 2           2             1    4     1       0.1631491146E-02       1    4    1         0.4239249848E-01      0.2320653201E+00
          0                 3           2             1    4     1       0.7328050654E-03       1    4    1         0.1904115960E-01      0.8612616852E-01
          0                 4           2             1    4     1       0.3291481527E-03       1    4    1         0.8552577245E-02      0.3725309675E-01
          0                 5           2             1    4     1       0.1478405494E-03       1    4    1         0.3841491047E-02      0.1656852033E-01
          0                 6           1             1    4     1       0.6640409583E-04       1    4    1         0.1725447792E-02      0.7401702418E-02
          0                 7           1             1    4     1       0.2982601879E-04       1    4    1         0.7750022572E-03      0.3309457762E-02
          0                 8           1             1    4     1       0.1339660652E-04       1    4    1         0.3480993631E-03      0.1480195134E-02
          0                 9           1             1    4     1       0.6017184986E-05       1    4    1         0.1563516871E-03      0.6621746452E-03

    ------------------------------------------------
       NWT REQUIRED            9 OUTER ITERATIONS 
       AND A TOTAL OF         14 INNER ITERATIONS.
    ------------------------------------------------

 NO OUTPUT CONTROL FOR STRESS PERIOD   25   TIME STEP   19
 
 SOLVING FOR HEAD 
                                                   Max.-Head-Change                         Max.-Flux-Residual
  Residual-Control   Outer-Iter.   Inner-Iter.     Column Row Layer    Maximum-Head-Change  Column Row Layer    Maximum-Flux-Residual          L2-NORM 
          0                 1           2             2    1     1       0.4138174421E-02       2    1    1         0.2149931180E+00      0.9519140181E+00
          0                 2           2             1    4     1       0.1630172094E-02       1    4    1         0.4235825025E-01      0.2318167522E+00
          0                 3           2             1    4     1       0.7322120574E-03       1    4    1         0.1902576233E-01      0.8604020979E-01
          0                 4           2             1    4     1       0.3288815586E-03       1    4    1         0.8545655101E-02      0.3721522185E-01
          0                 5           2             1    4     1       0.1477207010E-03       1    4    1         0.3838379121E-02      0.1655139949E-01
          0                 6           1             1    4     1       0.6635021841E-04       1    4    1         0.1724048821E-02      0.7393944032E-02
          0                 7           1             1    4     1       0.2980179904E-04       1    4    1         0.7743733592E-03      0.3305943593E-02
          0                 8           1             1    4     1       0.1338571894E-04       1    4    1         0.3478166523E-03      0.1478605047E-02
          0                 9           1             1    4     1       0.6012291064E-05       1    4    1         0.1562246054E-03      0.6614552987E-03

    ------------------------------------------------
       NWT REQUIRED            9 OUTER ITERATIONS 
       AND A TOTAL OF         14 INNER ITERATIONS.
    ------------------------------------------------

 NO OUTPUT CONTROL FOR STRESS PERIOD   25   TIME STEP   20
 
 SOLVING FOR HEAD 
                                                   Max.-Head-Change                         Max.-Flux-Residual
  Residual-Control   Outer-Iter.   Inner-Iter.     Column Row Layer    Maximum-Head-Change  Column Row Layer    Maximum-Flux-Residual          L2-NORM 
          0                 1           2             2    1     1       0.4132387466E-02       2    1    1         0.2146912640E+00      0.9499941539E+00
          0                 2           2             1    4     1       0.1628854943E-02       1    4    1         0.4232405481E-01      0.2315342041E+00
          0                 3           2             1    4     1       0.7316198335E-03       1    4    1         0.1901038691E-01      0.8594962420E-01
          0                 4           2             1    4     1       0.3286152858E-03       1    4    1         0.8538741958E-02      0.3717674649E-01
          0                 5           2             1    4     1       0.1476009836E-03       1    4    1         0.3835270882E-02      0.1653426485E-01
          0                 6           1             1    4     1       0.6629639376E-04       1    4    1         0.1722651342E-02      0.7386248278E-02
          0                 7           1             1    4     1       0.2977760029E-04       1    4    1         0.7737450648E-03      0.3302480495E-02
          0                 8           1             1    4     1       0.1337483986E-04       1    4    1         0.3475341819E-03      0.1477045848E-02
          0                 9           1             1    4     1       0.6007400142E-05       1    4    1         0.1560976113E-03      0.6607535895E-03

    ------------------------------------------------
       NWT REQUIRED            9 OUTER ITERATIONS 
       AND A TOTAL OF         14 INNER ITERATIONS.
    ------------------------------------------------

 NO OUTPUT CONTROL FOR STRESS PERIOD   25   TIME STEP   21
 
 SOLVING FOR HEAD 
                                                   Max.-Head-Change                         Max.-Flux-Residual
  Residual-Control   Outer-Iter.   Inner-Iter.     Column Row Layer    Maximum-Head-Change  Column Row Layer    Maximum-Flux-Residual          L2-NORM 
          0                 1           2             2    1     1       0.4126640801E-02       2    1    1         0.2143915096E+00      0.9480944334E+00
          0                 2           2             1    4     1       0.1627540185E-02       1    4    1         0.4228991616E-01      0.2311997527E+00
          0                 3           2             1    4     1       0.7310287966E-03       1    4    1         0.1899503998E-01      0.8582522884E-01
          0                 4           2             1    4     1       0.3283495959E-03       1    4    1         0.8531842913E-02      0.3712060329E-01
          0                 5           2             1    4     1       0.1474815493E-03       1    4    1         0.3832169547E-02      0.1650839381E-01
          0                 6           1             1    4     1       0.6624270643E-04       1    4    1         0.1721257225E-02      0.7374338389E-02
          0                 7           1             1    4     1       0.2975346708E-04       1    4    1         0.7731183842E-03      0.3297017003E-02
          0                 8           1             1    4     1       0.1336399179E-04       1    4    1         0.3472524857E-03      0.1474547871E-02
          0                 9           1             1    4     1       0.6002524227E-05       1    4    1         0.1559709948E-03      0.6596147765E-03

    ------------------------------------------------
       NWT REQUIRED            9 OUTER ITERATIONS 
       AND A TOTAL OF         14 INNER ITERATIONS.
    ------------------------------------------------

 NO OUTPUT CONTROL FOR STRESS PERIOD   25   TIME STEP   22
 
 SOLVING FOR HEAD 
                                                   Max.-Head-Change                         Max.-Flux-Residual
  Residual-Control   Outer-Iter.   Inner-Iter.     Column Row Layer    Maximum-Head-Change  Column Row Layer    Maximum-Flux-Residual          L2-NORM 
          0                 1           2             2    1     1       0.4120934085E-02       2    1    1         0.2140938429E+00      0.9459235265E+00
          0                 2           2             1    4     1       0.1626227240E-02       1    4    1         0.4225583065E-01      0.2308373672E+00
          0                 3           2             1    4     1       0.7304384467E-03       1    4    1         0.1897971356E-01      0.8569926261E-01
          0                 4           2             1    4     1       0.3280841580E-03       1    4    1         0.8524951602E-02      0.3706650758E-01
          0                 5           2             1    4     1       0.1473622035E-03       1    4    1         0.3829071034E-02      0.1648453092E-01
          0                 6           1             1    4     1       0.6618904736E-04       1    4    1         0.1719864083E-02      0.7363767833E-02
          0                 7           1             1    4     1       0.2972934237E-04       1    4    1         0.7724920232E-03      0.3292328409E-02
          0                 8           1             1    4     1       0.1335314598E-04       1    4    1         0.3469708758E-03      0.1472466480E-02
          0                 9           1             1    4     1       0.5997647812E-05       1    4    1         0.1558443789E-03      0.6586903812E-03

    ------------------------------------------------
       NWT REQUIRED            9 OUTER ITERATIONS 
       AND A TOTAL OF         14 INNER ITERATIONS.
    ------------------------------------------------

 NO OUTPUT CONTROL FOR STRESS PERIOD   25   TIME STEP   23
 
 SOLVING FOR HEAD 
                                                   Max.-Head-Change                         Max.-Flux-Residual
  Residual-Control   Outer-Iter.   Inner-Iter.     Column Row Layer    Maximum-Head-Change  Column Row Layer    Maximum-Flux-Residual          L2-NORM 
          0                 1           2             2    1     1       0.4115266941E-02       2    1    1         0.2137982443E+00      0.9442446633E+00
          0                 2           2             1    4     1       0.1624916847E-02       1    4    1         0.4222180348E-01      0.2305951199E+00
          0                 3           2             1    4     1       0.7298494112E-03       1    4    1         0.1896441776E-01      0.8561801075E-01
          0                 4           2             1    4     1       0.3278193847E-03       1    4    1         0.8518075995E-02      0.3703163444E-01
          0                 5           2             1    4     1       0.1472431895E-03       1    4    1         0.3825980442E-02      0.1646867534E-01
          0                 6           1             1    4     1       0.6613555210E-04       1    4    1         0.1718474879E-02      0.7356514754E-02
          0                 7           1             1    4     1       0.2970529719E-04       1    4    1         0.7718675929E-03      0.3289018678E-02
          0                 8           1             1    4     1       0.1334233793E-04       1    4    1         0.3466902039E-03      0.1470960664E-02
          0                 9           1             1    4     1       0.5992789906E-05       1    4    1         0.1557182273E-03      0.6580068726E-03

    ------------------------------------------------
       NWT REQUIRED            9 OUTER ITERATIONS 
       AND A TOTAL OF         14 INNER ITERATIONS.
    ------------------------------------------------

 NO OUTPUT CONTROL FOR STRESS PERIOD   25   TIME STEP   24
 
 SOLVING FOR HEAD 
                                                   Max.-Head-Change                         Max.-Flux-Residual
  Residual-Control   Outer-Iter.   Inner-Iter.     Column Row Layer    Maximum-Head-Change  Column Row Layer    Maximum-Flux-Residual          L2-NORM 
          0                 1           2             2    1     1       0.4109638998E-02       2    1    1         0.2135046941E+00      0.9407501206E+00
          0                 2           2             1    4     1       0.1623608622E-02       1    4    1         0.4218783616E-01      0.2301293786E+00
          0                 3           2             1    4     1       0.7292612756E-03       1    4    1         0.1894914690E-01      0.8551541433E-01
          0                 4           2             1    4     1       0.3275549833E-03       1    4    1         0.8511210737E-02      0.3699126125E-01
          0                 5           2             1    4     1       0.1471243277E-03       1    4    1         0.3822894112E-02      0.1645063051E-01
          0                 6           1             1    4     1       0.6608211863E-04       1    4    1         0.1717087424E-02      0.7348338103E-02
          0                 7           1             1    4     1       0.2968127728E-04       1    4    1         0.7712438777E-03      0.3285316628E-02
          0                 8           1             1    4     1       0.1333154039E-04       1    4    1         0.3464098240E-03      0.1469287980E-02
          0                 9           1             1    4     1       0.5987936251E-05       1    4    1         0.1555921886E-03      0.6573291850E-03

    ------------------------------------------------
       NWT REQUIRED            9 OUTER ITERATIONS 
       AND A TOTAL OF         14 INNER ITERATIONS.
    ------------------------------------------------

 NO OUTPUT CONTROL FOR STRESS PERIOD   25   TIME STEP   25
 
 SOLVING FOR HEAD 
                                                   Max.-Head-Change                         Max.-Flux-Residual
  Residual-Control   Outer-Iter.   Inner-Iter.     Column Row Layer    Maximum-Head-Change  Column Row Layer    Maximum-Flux-Residual          L2-NORM 
          0                 1           2             2    1     1       0.4104050007E-02       2    1    1         0.2132131734E+00      0.9388961668E+00
          0                 2           2             1    4     1       0.1622236120E-02       1    4    1         0.4215219573E-01      0.2298190616E+00
          0                 3           2             1    4     1       0.7286443317E-03       1    4    1         0.1893312616E-01      0.8541999921E-01
          0                 4           2             1    4     1       0.3272776702E-03       1    4    1         0.8504009390E-02      0.3695179007E-01
          0                 5           2             1    4     1       0.1469996793E-03       1    4    1         0.3819657157E-02      0.1643313590E-01
          0                 6           1             1    4     1       0.6602609226E-04       1    4    1         0.1715632460E-02      0.7340487835E-02
          0                 7           1             1    4     1       0.2965609460E-04       1    4    1         0.7705898974E-03      0.3281787094E-02
          0                 8           1             1    4     1       0.1332022186E-04       1    4    1         0.3461158808E-03      0.1467700825E-02
          0                 9           1             1    4     1       0.5982849242E-05       1    4    1         0.1554600729E-03      0.6565386630E-03

    ------------------------------------------------
       NWT REQUIRED            9 OUTER ITERATIONS 
       AND A TOTAL OF         14 INNER ITERATIONS.
    ------------------------------------------------

 NO OUTPUT CONTROL FOR STRESS PERIOD   25   TIME STEP   26
 
 SOLVING FOR HEAD 
                                                   Max.-Head-Change                         Max.-Flux-Residual
  Residual-Control   Outer-Iter.   Inner-Iter.     Column Row Layer    Maximum-Head-Change  Column Row Layer    Maximum-Flux-Residual          L2-NORM 
          0                 1           2             2    1     1       0.4098499528E-02       2    1    1         0.2129236712E+00      0.9365620811E+00
          0                 2           2             1    4     1       0.1620933241E-02       1    4    1         0.4211836106E-01      0.2293204853E+00
          0                 3           2             1    4     1       0.7280587274E-03       1    4    1         0.1891791832E-01      0.8522541046E-01
          0                 4           2             1    4     1       0.3270144636E-03       1    4    1         0.8497173956E-02      0.3686421273E-01
          0                 5           2             1    4     1       0.1468813798E-03       1    4    1         0.3816584899E-02      0.1639306835E-01
          0                 6           1             1    4     1       0.6597292240E-04       1    4    1         0.1714251624E-02      0.7322151963E-02
          0                 7           1             1    4     1       0.2963219824E-04       1    4    1         0.7699692940E-03      0.3273411235E-02
          0                 8           1             1    4     1       0.1330948209E-04       1    4    1         0.3458369581E-03      0.1463882138E-02
          0                 9           1             1    4     1       0.5978022599E-05       1    4    1         0.1553347161E-03      0.6548010157E-03

    ------------------------------------------------
       NWT REQUIRED            9 OUTER ITERATIONS 
       AND A TOTAL OF         14 INNER ITERATIONS.
    ------------------------------------------------

 NO OUTPUT CONTROL FOR STRESS PERIOD   25   TIME STEP   27
 
 SOLVING FOR HEAD 
                                                   Max.-Head-Change                         Max.-Flux-Residual
  Residual-Control   Outer-Iter.   Inner-Iter.     Column Row Layer    Maximum-Head-Change  Column Row Layer    Maximum-Flux-Residual          L2-NORM 
          0                 1           2             2    1     1       0.4092962605E-02       2    1    1         0.2126348808E+00      0.9351598750E+00
          0                 2           2             1    4     1       0.1619632483E-02       1    4    1         0.4208458775E-01      0.2289980480E+00
          0                 3           2             1    4     1       0.7274739455E-03       1    4    1         0.1890273460E-01      0.8508169256E-01
          0                 4           2             1    4     1       0.3267515681E-03       1    4    1         0.8490347830E-02      0.3679888154E-01
          0                 5           2             1    4     1       0.1467631941E-03       1    4    1         0.3813516144E-02      0.1636376072E-01
          0                 6           1             1    4     1       0.6591979281E-04       1    4    1         0.1712872061E-02      0.7309073022E-02
          0                 7           1             1    4     1       0.2960831438E-04       1    4    1         0.7693491165E-03      0.3267591969E-02
          0                 8           1             1    4     1       0.1329874533E-04       1    4    1         0.3455581649E-03      0.1461298443E-02
          0                 9           1             1    4     1       0.5973196206E-05       1    4    1         0.1552093943E-03      0.6536556614E-03

    ------------------------------------------------
       NWT REQUIRED            9 OUTER ITERATIONS 
       AND A TOTAL OF         14 INNER ITERATIONS.
    ------------------------------------------------

 NO OUTPUT CONTROL FOR STRESS PERIOD   25   TIME STEP   28
 
 SOLVING FOR HEAD 
                                                   Max.-Head-Change                         Max.-Flux-Residual
  Residual-Control   Outer-Iter.   Inner-Iter.     Column Row Layer    Maximum-Head-Change  Column Row Layer    Maximum-Flux-Residual          L2-NORM 
          0                 1           2             2    1     1       0.4087488145E-02       2    1    1         0.2123493507E+00      0.9339236715E+00
          0                 2           2             1    4     1       0.1618267862E-02       1    4    1         0.4204914686E-01      0.2287569011E+00
          0                 3           2             1    4     1       0.7268606500E-03       1    4    1         0.1888680635E-01      0.8498093938E-01
          0                 4           2             1    4     1       0.3264759418E-03       1    4    1         0.8483189289E-02      0.3675392497E-01
          0                 5           2             1    4     1       0.1466393246E-03       1    4    1         0.3810298973E-02      0.1634377960E-01
          0                 6           1             1    4     1       0.6586412535E-04       1    4    1         0.1711426232E-02      0.7300196606E-02
          0                 7           1             1    4     1       0.2958329753E-04       1    4    1         0.7686993552E-03      0.3263646338E-02
          0                 8           1             1    4     1       0.1328750308E-04       1    4    1         0.3452661656E-03      0.1459542969E-02
          0                 9           1             1    4     1       0.5968143963E-05       1    4    1         0.1550781685E-03      0.6528739990E-03

    ------------------------------------------------
       NWT REQUIRED            9 OUTER ITERATIONS 
       AND A TOTAL OF         14 INNER ITERATIONS.
    ------------------------------------------------

 NO OUTPUT CONTROL FOR STRESS PERIOD   25   TIME STEP   29
 
 SOLVING FOR HEAD 
                                                   Max.-Head-Change                         Max.-Flux-Residual
  Residual-Control   Outer-Iter.   Inner-Iter.     Column Row Layer    Maximum-Head-Change  Column Row Layer    Maximum-Flux-Residual          L2-NORM 
          0                 1           2             2    1     1       0.4082051220E-02       2    1    1         0.2120657757E+00      0.9327465982E+00
          0                 2           2             1    4     1       0.1616972412E-02       1    4    1         0.4201550979E-01      0.2285805498E+00
          0                 3           2             1    4     1       0.7262782877E-03       1    4    1         0.1887168476E-01      0.8491211772E-01
          0                 4           2             1    4     1       0.3262141493E-03       1    4    1         0.8476391495E-02      0.3672190825E-01
          0                 5           2             1    4     1       0.1465216414E-03       1    4    1         0.3807243132E-02      0.1632890076E-01
          0                 6           1             1    4     1       0.6581122436E-04       1    4    1         0.1710052552E-02      0.7293336223E-02
          0                 7           1             1    4     1       0.2955951822E-04       1    4    1         0.7680818624E-03      0.3260501717E-02
          0                 8           1             1    4     1       0.1327681409E-04       1    4    1         0.3449885918E-03      0.1458107770E-02
          0                 9           1             1    4     1       0.5963339080E-05       1    4    1         0.1549533972E-03      0.6522208519E-03

    ------------------------------------------------
       NWT REQUIRED            9 OUTER ITERATIONS 
       AND A TOTAL OF         14 INNER ITERATIONS.
    ------------------------------------------------

 NO OUTPUT CONTROL FOR STRESS PERIOD   25   TIME STEP   30



 STREAM LISTING     PERIOD     25   STEP       30

 LAYER ROW COL. STREAM  RCH.  FLOW INTO     FLOW TO   FLOW OUT OF   OVRLND.     DIRECT     STREAM       STREAM     STREAM     STREAM   STREAMBED  STREAMBED
                SEG.NO.  NO.  STRM. RCH.    AQUIFER    STRM. RCH.    RUNOFF     PRECIP       ET          HEAD       DEPTH      WIDTH   CONDCTNC.   GRADIENT

   1    1    1     1     1    3.5000E+00  8.3255E-02   3.4167E+00  0.000E+00  0.000E+00  0.000E+00  1.09371E+03  6.654E-01  5.047E+00  2.271E-02  1.222E+00
   1    2    2     1     2    3.4167E+00  1.2792E-01   3.2888E+00  0.000E+00  0.000E+00  0.000E+00  1.08872E+03  6.583E-01  4.995E+00  3.497E-02  1.219E+00
   1    3    3     1     3    3.2888E+00  1.0809E-01   3.1807E+00  0.000E+00  0.000E+00  0.000E+00  1.08307E+03  6.502E-01  4.935E+00  2.961E-02  1.217E+00
   1    3    4     1     4    3.1807E+00  9.8702E-02   3.0820E+00  0.000E+00  0.000E+00  0.000E+00  1.07805E+03  6.428E-01  4.882E+00  2.709E-02  1.214E+00
   1    4    5     2     1    1.0820E+00  2.4731E-01   8.3473E-01  0.000E+00  0.000E+00  0.000E+00  1.07210E+03  1.706E-01  1.200E+01  7.800E-02  1.057E+00
   1    5    6     2     2    8.3473E-01  1.8877E-01   6.4596E-01  0.000E+00  0.000E+00  0.000E+00  1.06666E+03  1.462E-01  1.200E+01  6.000E-02  1.049E+00
   1    6    6     2     3    6.4596E-01  1.8736E-01   4.5860E-01  0.000E+00  0.000E+00  0.000E+00  1.06192E+03  1.226E-01  1.200E+01  6.000E-02  1.041E+00
   1    7    6     2     4    4.5860E-01  1.8574E-01   2.7286E-01  0.000E+00  0.000E+00  0.000E+00  1.05717E+03  9.573E-02  1.200E+01  6.000E-02  1.032E+00
   1    8    6     2     5    2.7286E-01  1.8377E-01   8.9092E-02  0.000E+00  0.000E+00  0.000E+00  1.05242E+03  6.276E-02  1.200E+01  6.000E-02  1.021E+00
   1    3    5     3     1    2.0000E+00  2.8252E-01   1.7175E+00  0.000E+00  0.000E+00  0.000E+00  1.07555E+03  1.909E+00  9.636E+00  7.227E-02  1.955E+00
   1    3    6     3     2    1.7175E+00  2.4905E-01   1.4684E+00  0.000E+00  0.000E+00  0.000E+00  1.07264E+03  1.727E+00  8.909E+00  6.682E-02  1.864E+00
   1    3    7     3     3    1.4684E+00  1.9718E-01   1.2712E+00  0.000E+00  0.000E+00  0.000E+00  1.06987E+03  1.555E+00  8.218E+00  5.547E-02  1.777E+00
   1    4    8     3     4    1.2712E+00  2.2567E-01   1.0456E+00  0.000E+00  0.000E+00  0.000E+00  1.06682E+03  1.364E+00  7.455E+00  6.709E-02  1.682E+00
   1    5    8     3     5    1.0456E+00  1.5790E-01   8.8768E-01  0.000E+00  0.000E+00  0.000E+00  1.06362E+03  1.164E+00  6.655E+00  4.991E-02  1.582E+00
   1    6    8     3     6    8.8768E-01  5.5980E-02   8.3170E-01  0.000E+00  0.000E+00  0.000E+00  1.06158E+03  1.036E+00  6.145E+00  1.844E-02  1.518E+00
   1    5   10     4     1    1.0000E+01  9.0919E-02   9.9091E+00  0.000E+00  0.000E+00  0.000E+00  1.07836E+03  6.368E-01  1.000E+01  2.500E-02  1.212E+00
   1    5    9     4     2    9.9091E+00  1.8158E-01   9.7275E+00  0.000E+00  0.000E+00  0.000E+00  1.07154E+03  6.315E-01  1.000E+01  5.000E-02  1.211E+00
   1    6    8     4     3    9.7275E+00  1.2689E-01   9.6006E+00  0.000E+00  0.000E+00  0.000E+00  1.06381E+03  6.256E-01  1.000E+01  3.500E-02  1.209E+00
   1    6    8     5     1    1.0432E+01  2.2686E-01   1.0205E+01  0.000E+00  0.000E+00  0.000E+00  1.05868E+03  6.790E-01  1.542E+01  6.166E-02  1.226E+00
   1    7    7     5     2    1.0205E+01  2.7894E-01   9.9265E+00  0.000E+00  0.000E+00  0.000E+00  1.05417E+03  6.732E-01  1.519E+01  7.594E-02  1.224E+00
   1    8    7     5     3    9.9265E+00  1.9221E-01   9.7343E+00  0.000E+00  0.000E+00  0.000E+00  1.04992E+03  6.676E-01  1.497E+01  5.241E-02  1.223E+00
   1    8    6     5     4    9.7343E+00  1.3577E-01   9.5985E+00  0.000E+00  0.000E+00  0.000E+00  1.04691E+03  6.637E-01  1.482E+01  3.706E-02  1.221E+00
   1    9    6     6     1    9.6876E+00  2.2120E-01   9.4664E+00  0.000E+00  0.000E+00  0.000E+00  1.04341E+03  6.866E-01  1.200E+01  6.000E-02  1.229E+00
   1   10    7     6     2    9.4664E+00  2.2062E-01   9.2458E+00  0.000E+00  0.000E+00  0.000E+00  1.03886E+03  6.771E-01  1.200E+01  6.000E-02  1.226E+00
   1   11    7     6     3    9.2458E+00  2.2005E-01   9.0258E+00  0.000E+00  0.000E+00  0.000E+00  1.03430E+03  6.674E-01  1.200E+01  6.000E-02  1.222E+00
   1   12    7     6     4    9.0258E+00  2.1947E-01   8.8063E+00  0.000E+00  0.000E+00  0.000E+00  1.02975E+03  6.578E-01  1.200E+01  6.000E-02  1.219E+00
   1   13    7     6     5    8.8063E+00 -2.2922E-01   9.0355E+00  0.000E+00  0.000E+00  0.000E+00  1.02657E+03  6.580E-01  1.200E+01  2.400E-01 -3.184E-01
   1   14    9     7     1    1.5000E+02  1.1808E+00   1.4882E+02  0.000E+00  0.000E+00  0.000E+00  1.03987E+03  2.288E+00  5.530E+01  5.593E-01  7.037E-01
   1   13    8     7     2    1.4882E+02  1.6065E+00   1.4721E+02  0.000E+00  0.000E+00  0.000E+00  1.03478E+03  2.281E+00  5.526E+01  6.149E-01  8.710E-01
   1   13    7     7     3    1.4721E+02  1.2124E+00   1.4600E+02  0.000E+00  0.000E+00  0.000E+00  1.02969E+03  2.273E+00  5.523E+01  5.586E-01  7.235E-01
   1   13    6     8     1    1.5504E+02  5.8700E-01   1.5445E+02  0.000E+00  0.000E+00  0.000E+00  1.02472E+03  2.850E+00  4.132E+01  4.211E-01  4.647E-01
   1   13    5     8     2    1.5445E+02 -6.2803E-01   1.5508E+02  0.000E+00  0.000E+00  0.000E+00  1.01848E+03  2.850E+00  4.133E+01  4.211E+00 -4.971E-02
   1   13    4     8     3    1.5508E+02 -3.5572E+00   1.5863E+02  0.000E+00  0.000E+00  0.000E+00  1.01224E+03  2.864E+00  4.153E+01  4.233E+00 -2.801E-01
   1   13    3     8     4    1.5863E+02 -4.3623E+00   1.6300E+02  0.000E+00  0.000E+00  0.000E+00  1.00602E+03  2.891E+00  4.192E+01  4.272E+00 -3.404E-01
   1   13    2     8     5    1.6300E+02 -2.8340E+00   1.6583E+02  0.000E+00  0.000E+00  0.000E+00  9.99790E+02  2.915E+00  4.227E+01  4.308E+00 -2.193E-01
   1   13    1     8     6    1.6583E+02 -2.0551E+00   1.6789E+02  0.000E+00  0.000E+00  0.000E+00  9.94807E+02  2.932E+00  4.251E+01  2.599E+00 -2.636E-01
   1    6    8     9     1    0.0000E+00  0.0000E+00   0.0000E+00  0.000E+00  0.000E+00  0.000E+00  1.07850E+03  0.000E+00  4.000E+00  0.000E+00  1.000E+00





UNSATURATED ZONE PACKAGE VOLUMETRIC BUDGET FOR  TIME STEP    30 STRESS PERIOD   25
  ------------------------------------------------------------------------------



     CUMULATIVE VOLUMES      L**3       RATES FOR THIS TIME STEP      L**3/T
     ------------------                 ------------------------

           IN:                                      IN:
           ---                                      ---
        INFILTRATION =    44597671.4802          INFILTRATION =       0.0000E+00

          OUT:                                     OUT:
          ----                                     ----
              UZF ET =   571719376.0452                UZF ET =       0.0000E+00
        UZF RECHARGE =  1371522362.8173          UZF RECHARGE =          16.5978

            IN - OUT = -1898644067.3823              IN - OUT =         -16.5978

          STORAGE:                                 STORAGE:
          --------                                 --------
      STORAGE CHANGE = -1898617859.4343        STORAGE CHANGE =         -16.5978

 PERCENT DISCREPANCY IS DIFFERENCE BETWEEN IN-OUT MINUS CHANGE IN STORAGE
 DIVIDED BY THE AVERAGE OF IN AND OUT TIMES 100

 PERCENT DISCREPANCY =          -0.00     PERCENT DISCREPANCY =           0.00






1
  VOLUMETRIC BUDGET FOR ENTIRE MODEL AT END OF TIME STEP   30, STRESS PERIOD  25
  ------------------------------------------------------------------------------

     CUMULATIVE VOLUMES      L**3       RATES FOR THIS TIME STEP      L**3/T
     ------------------                 ------------------------

           IN:                                      IN:
           ---                                      ---
             STORAGE     =    79999328.0000               STORAGE     =           0.1370
       CONSTANT HEAD     =           0.0000         CONSTANT HEAD     =           0.0000
               WELLS     =           0.0000                 WELLS     =           0.0000
     HEAD DEP BOUNDS     =    17334686.0000       HEAD DEP BOUNDS     =           0.2752
      STREAM LEAKAGE     =   681840768.0000        STREAM LEAKAGE     =           9.2804
        UZF RECHARGE     =  1371523328.0000          UZF RECHARGE     =          16.5978
               GW ET     =           0.0000                 GW ET     =           0.0000
     SURFACE LEAKAGE     =           0.0000       SURFACE LEAKAGE     =           0.0000
    SUPPLEMENTARY WELLS  =           0.0000      SUPPLEMENTARY WELLS  =           0.0000

                TOTAL IN =  2150697984.0000                  TOTAL IN =          26.2904

          OUT:                                     OUT:
          ----                                     ----
             STORAGE     =  1251264256.0000               STORAGE     =          12.3165
       CONSTANT HEAD     =           0.0000         CONSTANT HEAD     =           0.0000
               WELLS     =           0.0000                 WELLS     =           0.0000
     HEAD DEP BOUNDS     =    18124594.0000       HEAD DEP BOUNDS     =           0.2887
      STREAM LEAKAGE     =   697834432.0000        STREAM LEAKAGE     =          13.6658
        UZF RECHARGE     =           0.0000          UZF RECHARGE     =           0.0000
               GW ET     =   183239744.0000                 GW ET     =       1.7500E-02
     SURFACE LEAKAGE     =           0.0000       SURFACE LEAKAGE     =           0.0000
    SUPPLEMENTARY WELLS  =      324965.9062      SUPPLEMENTARY WELLS  =           0.0000

               TOTAL OUT =  2150787840.0000                 TOTAL OUT =          26.2886

                IN - OUT =      -89856.0000                  IN - OUT =       1.7834E-03

     PERCENT DISCREPANCY =          -0.00         PERCENT DISCREPANCY =           0.01






         TIME SUMMARY AT END OF TIME STEP   30 IN STRESS PERIOD   25
                    SECONDS     MINUTES      HOURS       DAYS        YEARS
                    -----------------------------------------------------------
   TIME STEP LENGTH  87600.      1460.0      24.333      1.0139     2.77588E-03
 STRESS PERIOD TIME 2.62800E+06  43800.      730.00      30.417     8.32763E-02
         TOTAL TIME 6.31584E+07 1.05264E+06  17544.      731.00      2.0014    
1

 Run end date and time (yyyy/mm/dd hh:mm:ss): 2017/09/27 14:06:53
 Elapsed run time:  1 Minutes, 31.478 Seconds

