                                  MODFLOW-NWT-SWR1 
      U.S. GEOLOGICAL SURVEY MODULAR FINITE-DIFFERENCE GROUNDWATER-FLOW MODEL
                            VERSION 1.1.3, 8/01/2017
                    BASED ON MODFLOW-2005 VERSION 1.11.00 08/08/2013

 LIST FILE: wellsuppirr.lst
                         UNIT    9

 OPENING wellsuppirr.ba6
 FILE TYPE:BAS6   UNIT   75   STATUS:OLD    
 FORMAT:FORMATTED              ACCESS:SEQUENTIAL          

 OPENING wellsuppirr.upw
 FILE TYPE:UPW   UNIT    7   STATUS:OLD    
 FORMAT:FORMATTED              ACCESS:SEQUENTIAL          

 OPENING wellsuppirr.dis
 FILE TYPE:DIS   UNIT    8   STATUS:OLD    
 FORMAT:FORMATTED              ACCESS:SEQUENTIAL          

 OPENING wellsuppirr.nwt
 FILE TYPE:NWT   UNIT   13   STATUS:OLD    
 FORMAT:FORMATTED              ACCESS:SEQUENTIAL          

 OPENING wellsuppirr.oc
 FILE TYPE:OC   UNIT   14   STATUS:OLD    
 FORMAT:FORMATTED              ACCESS:SEQUENTIAL          

 OPENING wellsuppirr.sfr
 FILE TYPE:SFR   UNIT   15   STATUS:OLD    
 FORMAT:FORMATTED              ACCESS:SEQUENTIAL          

 OPENING wellsuppirr.wel
 FILE TYPE:WEL   UNIT   16   STATUS:OLD    
 FORMAT:FORMATTED              ACCESS:SEQUENTIAL          

 OPENING wellsuppirr.ghb
 FILE TYPE:GHB   UNIT   17   STATUS:OLD    
 FORMAT:FORMATTED              ACCESS:SEQUENTIAL          

 OPENING wellsuppirr.uzf
 FILE TYPE:UZF   UNIT   19   STATUS:OLD    
 FORMAT:FORMATTED              ACCESS:SEQUENTIAL          

 OPENING wellsuppirr.gag
 FILE TYPE:GAGE   UNIT   32   STATUS:OLD    
 FORMAT:FORMATTED              ACCESS:SEQUENTIAL          

 OPENING seg1.tab
 FILE TYPE:DATA   UNIT   55   STATUS:UNKNOWN
 FORMAT:FORMATTED              ACCESS:SEQUENTIAL          

 OPENING seg9.tab
 FILE TYPE:DATA   UNIT   56   STATUS:UNKNOWN
 FORMAT:FORMATTED              ACCESS:SEQUENTIAL          

 OPENING wellsuppirr.ago
 FILE TYPE:AGO   UNIT   57   STATUS:OLD    
 FORMAT:FORMATTED              ACCESS:SEQUENTIAL          

 OPENING wellsuppirr.sup
 FILE TYPE:DATA   UNIT   60   STATUS:UNKNOWN
 FORMAT:FORMATTED              ACCESS:SEQUENTIAL          

 OPENING wellsuppirr.hed
 FILE TYPE:DATA   UNIT   62   STATUS:UNKNOWN
 FORMAT:FORMATTED              ACCESS:SEQUENTIAL          

 OPENING wellsuppirr.uzfot
 FILE TYPE:DATA(BINARY)   UNIT   61   STATUS:UNKNOWN
 FORMAT:BINARY                 ACCESS:SEQUENTIAL          

 OPENING netfluxin.unf
 FILE TYPE:DATA(BINARY)   UNIT  100   STATUS:UNKNOWN
 FORMAT:BINARY                 ACCESS:SEQUENTIAL          

 OPENING netfluxout.unf
 FILE TYPE:DATA(BINARY)   UNIT  101   STATUS:UNKNOWN
 FORMAT:BINARY                 ACCESS:SEQUENTIAL          

 OPENING cbc.unf
 FILE TYPE:DATA(BINARY)   UNIT  102   STATUS:UNKNOWN
 FORMAT:BINARY                 ACCESS:SEQUENTIAL          

 OPENING wellsuppirr.uzf1
 FILE TYPE:DATA   UNIT   65   STATUS:UNKNOWN
 FORMAT:FORMATTED              ACCESS:SEQUENTIAL          

 OPENING wellsuppirr.uzf2
 FILE TYPE:DATA   UNIT   66   STATUS:UNKNOWN
 FORMAT:FORMATTED              ACCESS:SEQUENTIAL          

 OPENING wellsuppirr.uzf3
 FILE TYPE:DATA   UNIT   67   STATUS:UNKNOWN
 FORMAT:FORMATTED              ACCESS:SEQUENTIAL          

 OPENING wellsuppirr.uzf4
 FILE TYPE:DATA   UNIT   68   STATUS:UNKNOWN
 FORMAT:FORMATTED              ACCESS:SEQUENTIAL          

 OPENING wellsuppirr.flw
 FILE TYPE:DATA   UNIT   81   STATUS:UNKNOWN
 FORMAT:FORMATTED              ACCESS:SEQUENTIAL          

 OPENING wellsuppirr.sg1
 FILE TYPE:DATA   UNIT   83   STATUS:UNKNOWN
 FORMAT:FORMATTED              ACCESS:SEQUENTIAL          

 OPENING wellsuppirr.sg2
 FILE TYPE:DATA   UNIT   84   STATUS:UNKNOWN
 FORMAT:FORMATTED              ACCESS:SEQUENTIAL          

 OPENING wellsuppirr.sg3
 FILE TYPE:DATA   UNIT   85   STATUS:UNKNOWN
 FORMAT:FORMATTED              ACCESS:SEQUENTIAL          

 OPENING wellsuppirr.sg4
 FILE TYPE:DATA   UNIT   86   STATUS:UNKNOWN
 FORMAT:FORMATTED              ACCESS:SEQUENTIAL          

 OPENING wellsuppirr.sg5
 FILE TYPE:DATA   UNIT   87   STATUS:UNKNOWN
 FORMAT:FORMATTED              ACCESS:SEQUENTIAL          

 OPENING wellsuppirr.sg6
 FILE TYPE:DATA   UNIT   88   STATUS:UNKNOWN
 FORMAT:FORMATTED              ACCESS:SEQUENTIAL          

 OPENING wellsuppirr.sg7
 FILE TYPE:DATA   UNIT   89   STATUS:UNKNOWN
 FORMAT:FORMATTED              ACCESS:SEQUENTIAL          

 OPENING wellsuppirr.sg8
 FILE TYPE:DATA   UNIT   90   STATUS:UNKNOWN
 FORMAT:FORMATTED              ACCESS:SEQUENTIAL          

 OPENING wellsuppirr.sg9
 FILE TYPE:DATA   UNIT   91   STATUS:UNKNOWN
 FORMAT:FORMATTED              ACCESS:SEQUENTIAL          

 BAS -- BASIC PACKAGE, VERSION 1.1.3, 8/01/2017 INPUT READ FROM UNIT   75
 
 MODFLOW was compiled using mixed precision
 Precision of REAL variables:           6
 Precision of DOUBLE PRECISION variables:          15

 DISCRETIZATION INPUT DATA READ FROM UNIT    8
 #Test problem 2-- Discretization input
 #Example problem using the UZF1 Package
    1 LAYERS        15 ROWS        10 COLUMNS
   25 STRESS PERIOD(S) IN SIMULATION
 MODEL TIME UNIT IS SECONDS
 MODEL LENGTH UNIT IS FEET
  Confining bed flag for each layer:
   0

                     DELR =   5000.00    

                     DELC =   5000.00    



           TOP ELEVATION OF LAYER 1
 READING ON UNIT    8 WITH FORMAT: (10F7.0)            

            1           2           3           4           5           6           7           8           9          10
 ........................................................................................................................
   1    1105.       1105.       0.000       0.000       0.000       0.000       0.000       0.000       0.000       0.000    
   2    1105.       1095.       1105.       0.000       0.000       1100.       1100.       1110.       0.000       0.000    
   3    0.000       1100.       1085.       1080.       1078.       1076.       1073.       1090.       0.000       0.000    
   4    1110.       1100.       1090.       1085.       1076.       1080.       1080.       1070.       1100.       0.000    
   5    1110.       1100.       1085.       1080.       1078.       1074.       1077.       1066.       1075.       1080.    
   6    1105.       1095.       1080.       1077.       1073.       1069.       1070.       1063.       1085.       1095.    
   7    1105.       1090.       1075.       1072.       1070.       1065.       1065.       1069.       1090.       0.000    
   8    0.000       1080.       1070.       1068.       1063.       1060.       1063.       1067.       1090.       0.000    
   9    0.000       1075.       1065.       1062.       1058.       1052.       1055.       1065.       1090.       0.000    
  10    0.000       1070.       1060.       1055.       1046.       1046.       1044.       1060.       1088.       1100.    
  11    0.000       1055.       1050.       1045.       1041.       1042.       1040.       1050.       1075.       0.000    
  12    1027.       1028.       1028.       1032.       1032.       1033.       1032.       1040.       1060.       0.000    
  13    997.0       1004.       1008.       1014.       1020.       1027.       1032.       1038.       1050.       0.000    
  14    0.000       1030.       1040.       1045.       1050.       1050.       1050.       1050.       1044.       0.000    
  15    0.000       0.000       1080.       1080.       1080.       1080.       0.000       0.000       0.000       0.000    



             MODEL LAYER BOTTOM EL. FOR LAYER   1
 READING ON UNIT    8 WITH FORMAT: (10F7.0)            

            1           2           3           4           5           6           7           8           9          10
 ........................................................................................................................
   1    1000.       1000.       0.000       0.000       0.000       0.000       0.000       0.000       0.000       0.000    
   2    1000.       900.0       900.0       0.000       0.000       950.0       950.0       950.0       0.000       0.000    
   3    0.000       850.0       670.0       680.0       680.0       770.0       770.0       890.0       0.000       0.000    
   4    925.0       850.0       650.0       650.0       650.0       680.0       740.0       850.0       950.0       0.000    
   5    925.0       800.0       650.0       600.0       600.0       600.0       650.0       720.0       850.0       950.0    
   6    925.0       800.0       650.0       600.0       550.0       600.0       650.0       720.0       850.0       970.0    
   7    925.0       800.0       650.0       600.0       550.0       600.0       650.0       720.0       950.0       0.000    
   8    0.000       850.0       700.0       650.0       570.0       600.0       700.0       850.0       950.0       0.000    
   9    0.000       850.0       700.0       650.0       540.0       580.0       700.0       850.0       950.0       0.000    
  10    0.000       850.0       700.0       630.0       530.0       580.0       650.0       800.0       900.0       950.0    
  11    0.000       850.0       700.0       620.0       580.0       620.0       700.0       800.0       900.0       0.000    
  12    900.0       830.0       710.0       640.0       600.0       650.0       700.0       800.0       900.0       0.000    
  13    900.0       810.0       750.0       700.0       650.0       700.0       750.0       800.0       900.0       0.000    
  14    0.000       950.0       850.0       850.0       850.0       850.0       850.0       850.0       850.0       0.000    
  15    0.000       0.000       950.0       950.0       950.0       950.0       0.000       0.000       0.000       0.000    


 STRESS PERIOD     LENGTH       TIME STEPS     MULTIPLIER FOR DELT    SS FLAG
 ----------------------------------------------------------------------------
        1         86400.00          1                    1.000         SS
        2         2628000.         30                    1.000         TR
        3         2628000.         30                    1.000         TR
        4         2628000.         30                    1.000         TR
        5         2628000.         30                    1.000         TR
        6         2628000.         30                    1.000         TR
        7         2628000.         30                    1.000         TR
        8         2628000.         30                    1.000         TR
        9         2628000.         30                    1.000         TR
       10         2628000.         30                    1.000         TR
       11         2628000.         30                    1.000         TR
       12         2628000.         30                    1.000         TR
       13         2628000.         30                    1.000         TR
       14         2628000.         30                    1.000         TR
       15         2628000.         30                    1.000         TR
       16         2628000.         30                    1.000         TR
       17         2628000.         30                    1.000         TR
       18         2628000.         30                    1.000         TR
       19         2628000.         30                    1.000         TR
       20         2628000.         30                    1.000         TR
       21         2628000.         30                    1.000         TR
       22         2628000.         30                    1.000         TR
       23         2628000.         30                    1.000         TR
       24         2628000.         30                    1.000         TR
       25         2628000.         30                    1.000         TR

 COMBINED STEADY-STATE AND TRANSIENT SIMULATION



 
 #Test Simulation 2-- Example problem using the UZF1 Package                     
 #Modified from example Problem 1 of SFR1 documentation report                   
 THE FREE FORMAT OPTION HAS BEEN SELECTED



                     BOUNDARY ARRAY FOR LAYER   1
 READING ON UNIT   75 WITH FORMAT: (20I4)              

                1           2           3           4           5           6           7           8           9          10
 ............................................................................................................................
   1            1           1           0           0           0           0           0           0           0           0
   2            1           1           1           0           0           1           1           1           0           0
   3            0           1           1           1           1           1           1           1           0           0
   4            1           1           1           1           1           1           1           1           1           0
   5            1           1           1           1           1           1           1           1           1           1
   6            1           1           1           1           1           1           1           1           1           1
   7            1           1           1           1           1           1           1           1           1           0
   8            0           1           1           1           1           1           1           1           1           0
   9            0           1           1           1           1           1           1           1           1           0
  10            0           1           1           1           1           1           1           1           1           1
  11            0           1           1           1           1           1           1           1           1           0
  12            1           1           1           1           1           1           1           1           1           0
  13            1           1           1           1           1           1           1           1           1           0
  14            0           1           1           1           1           1           1           1           1           0
  15            0           0           1           1           1           1           0           0           0           0

 AQUIFER HEAD WILL BE SET TO   6999.0     AT ALL NO-FLOW NODES (IBOUND=0).



                       INITIAL HEAD FOR LAYER   1
 READING ON UNIT   75 WITH FORMAT: (10F8.0)            

            1           2           3           4           5           6           7           8           9          10
 ........................................................................................................................
   1    1093.       1089.       6999.       6999.       6999.       6999.       6999.       6999.       6999.       6999.    
   2    1090.       1087.       1081.       6999.       6999.       1072.       1071.       1071.       6999.       6999.    
   3    6999.       1079.       1078.       1074.       1072.       1071.       1069.       1068.       6999.       6999.    
   4    1069.       1071.       1070.       1067.       1065.       1064.       1064.       1066.       1066.       6999.    
   5    1065.       1064.       1063.       1062.       1061.       1061.       1060.       1062.       1066.       1068.    
   6    1060.       1058.       1057.       1056.       1056.       1057.       1057.       1059.       1062.       1066.    
   7    1056.       1053.       1052.       1051.       1051.       1052.       1053.       1055.       1056.       6999.    
   8    6999.       1046.       1046.       1046.       1046.       1046.       1048.       1050.       1050.       6999.    
   9    6999.       1039.       1039.       1039.       1040.       1041.       1042.       1043.       1044.       6999.    
  10    6999.       1031.       1032.       1033.       1034.       1035.       1037.       1038.       1039.       1042.    
  11    6999.       1021.       1023.       1027.       1029.       1030.       1032.       1034.       1036.       6999.    
  12    1001.       1009.       1015.       1020.       1023.       1026.       1029.       1030.       1034.       6999.    
  13    994.5      1000.0       1007.       1013.       1019.       1024.       1029.       1034.       1036.       6999.    
  14    6999.       1004.       1009.       1014.       1019.       1024.       1029.       1035.       1039.       6999.    
  15    6999.       6999.       1012.       1015.       1019.       1022.       6999.       6999.       6999.       6999.    

 OUTPUT CONTROL IS SPECIFIED ONLY AT TIME STEPS FOR WHICH OUTPUT IS DESIRED
 HEADS WILL BE SAVED WITH FORMAT: (10F10.3)           
 SAVED HEADS WILL BE LABELED
 HEAD PRINT FORMAT CODE IS   4    DRAWDOWN PRINT FORMAT CODE IS   0
 HEADS WILL BE SAVED ON UNIT   62    DRAWDOWNS WILL BE SAVED ON UNIT    0
 # NWT Input File
 # Test Problem 3 for MODFLOW-NWT
 #HEADTOL  FLUXTOL MAXITEROUT THICKFACT LINMETH IPRNWT IBOTAV OPTIONS DBDREDUCE DBDINCREASE DBDGAMMA MOMFACT BACKFLAG MAXBACKITER BACKTOL BACKREDUCE

 NWT1 -- Newton Solver, VERSION 1.1.3, 8/01/2017
         INPUT READ FROM UNIT 13

 SPECIFIED OPTION:
 SOLVER INPUT VALUES ARE SPECIFIED BY USER
 ***XMD linear solver will be used***
 
   CONVERGENCE CRITERION OF   0.100000E-04 FOR HEAD SOLUTION
   AND A TOLERANCE OF   0.100000E+03 FOR FLOW SOLUTION AND 
   A MAXIMUM OF   200 OUTER ITERATIONS. 


   D-B-D REDUCTION FACTOR OF    0.990000E+00 AND 
   A D-B-D INCREASE FACTOR OF    0.100000E-04 AND 
   A D-B-D RELAXATION OF    0.000000E+00 AND 
   A MOMENTUM FACTOR OF    0.100000E+00 .


 ***BACKTRACKING IS INACTIVE***
 XMD -- LINEAR SOLUTION BY XMD PACKAGE VERSION 1.30
     BY MOTOMU IBARAKI, OHIO STATE UNIVERSITY, COLOMBUS, OH
                 INPUT READ FROM UNIT 13
 ACCELERATION METHOD                    (IACL) =         2
 NODE ORDERING FLAG                   (NORDER) =         0
 LEVEL OF FILL                         (LEVEL) =        10
 MAXIMUM NUMBER OF ORTHOGONALIZATIONS  (NORTH) =        10
 INDEX FOR USING REDUCED SYSTEM      (IREDSYS) =         1
 RESID. REDUCTION CONVERGE CRITERION  (RRCTOL) =  0.000000E+00
 INDEX FOR USING DROP TOLERANCE     (IDROPTOL) =         1
 DROP TOLERANCE VALUE                  (EPSRN) =  0.500000E-02
 CONVERGENCE CRITERIA OF           (HCLOSEXMD) =  0.100000E-03
 MAX. NUMBER OF LINEAR ITERATIONS  (MXITERXMD) =        50


 UPW1 -- UPSTREAM WEIGHTING FLOW PACKAGE, VERSION 1.1.3, 8/01/2017
         INPUT READ FROM UNIT  7

 #Layer-Property Flow Package input for test simulation 2
 CELL-BY-CELL FLOWS WILL BE SAVED ON UNIT  102
 No named parameters

   LAYER FLAGS:
 LAYER       LAYTYP          LAYAVG    CHANI           LAYVKA           LAYWET
 ---------------------------------------------------------------------------
    1             1             0     1.000E+00             0             0

   INTERPRETATION OF LAYER FLAGS:
                        INTERBLOCK     HORIZONTAL    DATA IN
         LAYER TYPE   TRANSMISSIVITY   ANISOTROPY   ARRAY VKA   WETTABILITY
 LAYER   (LAYTYP)        (LAYAVG)      (CHANI)     (LAYVKA)       (LAYWET)
 ---------------------------------------------------------------------------
    1   CONVERTIBLE      HARMONIC     1.000E+00    VERTICAL K  NON-WETTABLE



              HYD. COND. ALONG ROWS FOR LAYER   1
 READING ON UNIT    7 WITH FORMAT: (10F5.0)            

            1           2           3           4           5           6           7           8           9          10
 ........................................................................................................................
   1   2.0000E-03  2.0000E-03   0.000       0.000       0.000       0.000       0.000       0.000       0.000       0.000    
   2   4.0000E-04  2.0000E-03  2.0000E-03   0.000       0.000      4.0000E-04  4.0000E-04  4.0000E-04   0.000       0.000    
   3    0.000      4.0000E-04  2.0000E-03  2.0000E-03  4.0000E-04  4.0000E-04  4.0000E-04  4.0000E-04   0.000       0.000    
   4   4.0000E-04  4.0000E-04  4.0000E-04  2.0000E-03  2.0000E-03  2.0000E-03  4.0000E-04  4.0000E-04  4.0000E-04   0.000    
   5   4.0000E-04  4.0000E-04  4.0000E-04  2.0000E-03  2.0000E-03  2.0000E-03  2.0000E-03  2.0000E-03  2.0000E-03  2.0000E-03
   6   4.0000E-04  4.0000E-04  4.0000E-04  2.0000E-03  2.0000E-03  2.0000E-03  2.0000E-03  2.0000E-03  4.0000E-04  4.0000E-04
   7   4.0000E-04  4.0000E-04  4.0000E-04  2.0000E-03  2.0000E-03  2.0000E-03  2.0000E-03  2.0000E-03  4.0000E-04   0.000    
   8    0.000      4.0000E-04  4.0000E-04  2.0000E-03  2.0000E-03  2.0000E-03  2.0000E-03  4.0000E-04  4.0000E-04   0.000    
   9    0.000      4.0000E-04  4.0000E-04  2.0000E-03  2.0000E-03  2.0000E-03  2.0000E-03  4.0000E-04  4.0000E-04   0.000    
  10    0.000      4.0000E-04  4.0000E-04  2.0000E-03  2.0000E-03  2.0000E-03  2.0000E-03  4.0000E-04  4.0000E-04  4.0000E-04
  11    0.000      4.0000E-04  4.0000E-04  2.0000E-03  2.0000E-03  2.0000E-03  2.0000E-03  4.0000E-04  4.0000E-04   0.000    
  12   4.0000E-04  4.0000E-04  2.0000E-03  2.0000E-03  2.0000E-03  2.0000E-03  2.0000E-03  4.0000E-04  4.0000E-04   0.000    
  13   2.0000E-03  2.0000E-03  2.0000E-03  2.0000E-03  2.0000E-03  2.0000E-03  2.0000E-03  2.0000E-03  2.0000E-03   0.000    
  14    0.000      4.0000E-04  4.0000E-04  4.0000E-04  4.0000E-04  4.0000E-04  4.0000E-04  4.0000E-04  2.0000E-03   0.000    
  15    0.000       0.000      4.0000E-04  4.0000E-04  4.0000E-04  4.0000E-04   0.000       0.000       0.000       0.000    

      VERTICAL HYD. COND. =  1.000000E-06 FOR LAYER   1

         SPECIFIC STORAGE =  1.000000E-06 FOR LAYER   1



                     SPECIFIC YIELD FOR LAYER   1
 READING ON UNIT    7 WITH FORMAT: (10F5.0)            

            1           2           3           4           5           6           7           8           9          10
 ........................................................................................................................
   1   0.2000      0.2000       0.000       0.000       0.000       0.000       0.000       0.000       0.000       0.000    
   2   0.1000      0.2000      0.2000       0.000       0.000      0.1000      0.1000      0.1000       0.000       0.000    
   3    0.000      0.1000      0.2000      0.2000      0.1000      0.1000      0.1000      0.1000       0.000       0.000    
   4   0.1000      0.1000      0.1000      0.2000      0.2000      0.2000      0.1000      0.1000      0.1000       0.000    
   5   0.1000      0.1000      0.1000      0.2000      0.2000      0.2000      0.2000      0.2000      0.2000      0.2000    
   6   0.1000      0.1000      0.1000      0.2000      0.2000      0.2000      0.2000      0.2000      0.1000      0.1000    
   7   0.1000      0.1000      0.1000      0.2000      0.2000      0.2000      0.2000      0.2000      0.1000       0.000    
   8    0.000      0.1000      0.1000      0.2000      0.2000      0.2000      0.2000      0.1000      0.1000       0.000    
   9    0.000      0.1000      0.1000      0.2000      0.2000      0.2000      0.2000      0.1000      0.1000       0.000    
  10    0.000      0.1000      0.1000      0.2000      0.2000      0.2000      0.2000      0.1000      0.1000      0.1000    
  11    0.000      0.1000      0.1000      0.2000      0.2000      0.2000      0.2000      0.1000      0.1000       0.000    
  12   0.1000      0.1000      0.2000      0.2000      0.2000      0.2000      0.2000      0.1000      0.1000       0.000    
  13   0.2000      0.2000      0.2000      0.2000      0.2000      0.2000      0.2000      0.2000      0.2000       0.000    
  14    0.000      0.1000      0.1000      0.1000      0.1000      0.1000      0.1000      0.1000      0.2000       0.000    
  15    0.000       0.000      0.1000      0.1000      0.1000      0.1000       0.000       0.000       0.000       0.000    

 WEL -- WELL PACKAGE FOR NWT VERSION 1.1.2,  9/15/2016 INPUT READ FROM UNIT   16
 #Well Package input for test simulation 2
 No named parameters
 MAXIMUM OF     10 ACTIVE WELLS AT ONE TIME
 No named parameters
  PHIRAMP WILL BE SET TO A DEFAULT VALUE OF 1.0E-5
  WELLS WITH REDUCED PUMPING WILL BE REPORTED TO THE MAIN LISTING FILE


     0 Well parameters

 GHB -- GENERAL-HEAD BOUNDARY PACKAGE, VERSION 7, 5/2/2005
         INPUT READ FROM UNIT   17
 No named parameters
 MAXIMUM OF      2 ACTIVE GHB CELLS AT ONE TIME
 CELL-BY-CELL FLOWS WILL BE PRINTED WHEN ICBCFL NOT 0


     0 GHB parameters

 SFR7 -- STREAMFLOW ROUTING PACKAGE, VERSION 1.0.5, 2012-04-05
         INPUT READ FROM UNIT  15
 #SFR2 Package input for Testing supplimental pumping and irrigation
 No named parameters

 PROCESSING SFR2 OPTIONS
 
 
Stream loss will be calculated as a factor of the streambed hydraulic conductivity. Multiplication factor is equal to     0.1000000015E+00
          2 Specified inflow files will be read with a maximum of        759 row entries per file

 END PROCESSING SFR2 OPTIONS
 


 NUMBER OF STREAM REACHES IS   37

 NUMBER OF STREAM SEGMENTS IS    9

 NUMBER OF STREAM PARAMETERS IS    0

 NUMBER OF STREAM SEGMENTS DEFINED USING PARAMETERS IS              0

 MAXIMUM ERROR FOR STREAM LEAKAGE RATES IS  1.00E-06

 CONSTANT FOR MANNINGS EQUATION IS  1.4860E+00



 STREAM OUTPUT WILL BE WRITTEN TO FILE ON UNIT   81


   STREAM NETWORK DESCRIPTION: 

   LAYER    ROW    COL   SEGMENT   REACH     LENGTH
                          NUMBER   NUMBER    IN CELL        
   --------------------------------------------------
      1      1      1       1        1    4.5000E+03
      1      2      2       1        2    7.0000E+03
      1      3      3       1        3    6.0000E+03
      1      3      4       1        4    5.5500E+03
      1      4      5       2        1    6.5000E+03
      1      5      6       2        2    5.0000E+03
      1      6      6       2        3    5.0000E+03
      1      7      6       2        4    5.0000E+03
      1      8      6       2        5    5.0000E+03
      1      3      5       3        1    5.0000E+03
      1      3      6       3        2    5.0000E+03
      1      3      7       3        3    4.5000E+03
      1      4      8       3        4    6.0000E+03
      1      5      8       3        5    5.0000E+03
      1      6      8       3        6    2.0000E+03
      1      5     10       4        1    2.5000E+03
      1      5      9       4        2    5.0000E+03
      1      6      8       4        3    3.5000E+03
      1      6      8       5        1    4.0000E+03
      1      7      7       5        2    5.0000E+03
      1      8      7       5        3    3.5000E+03
      1      8      6       5        4    2.5000E+03
      1      9      6       6        1    5.0000E+03
      1     10      7       6        2    5.0000E+03
      1     11      7       6        3    5.0000E+03
      1     12      7       6        4    5.0000E+03
      1     13      7       6        5    2.0000E+03
      1     14      9       7        1    5.0000E+03
      1     13      8       7        2    5.5000E+03
      1     13      7       7        3    5.0000E+03
      1     13      6       8        1    5.0000E+03
      1     13      5       8        2    5.0000E+03
      1     13      4       8        3    5.0000E+03
      1     13      3       8        4    5.0000E+03
      1     13      2       8        5    5.0000E+03
      1     13      1       8        6    3.0000E+03
      1      6      8       9        1    5.0000E+01




 UZF1 -- UNSATURATED FLOW PACKAGE, VERSION 1.4, 02/06/2012
         INPUT READ FROM UNIT 19
 #UZF Package input for test simulation 2
 No named parameters

 PROCESSING UZF OPTIONS
 
 
 INITIAL WATER CONTENT (THTI) WILL BE 
READ FOR THE FIRST SS OR TR STRESS PERIOD
 
 
 RESIDUAL WATER CONTENT (THTR) WILL BE 
READ AND USED FOR THE FIRST TRANSIENT STRESS 
PERIOD
 
  OUTPUT WILL BE WRITTEN TO NETRECH AND NETDIS FILES WITH UNIT NUMBERS        100       101, RESPECTIVELY
 
 A SQUARE ET FUNCTION WILL BE USED TO SIMULATE GW ET
 
 
INFILTRATION WILL BE REJECTED USING 
LAND SURFACE K
 
 
HYDRAULIC CONDUCTIVITY OF LAND SURFACE 
WILL BE READ
 

 END PROCESSING UZF OPTIONS



            AREAL EXTENT OF UZ FLOW
 READING ON UNIT   19 WITH FORMAT: (20I4)              

                1           2           3           4           5           6           7           8           9          10
 ............................................................................................................................
   1            1           1           0           0           0           0           0           0           0           0
   2            1           1           1           0           0           1           1           1           0           0
   3            0           1           1           1           1           1           1           1           0           0
   4            1           1           1           1           1           1           1           1           1           0
   5            1           1           1           1           1           1           1           1           1           1
   6            1           1           1           1           1           1           1           1           1           1
   7            1           1           1           1           1           1           1           1           1           0
   8            0           1           1           1           1           1           1           1           1           0
   9            0           1           1           1           1           1           1           1           1           0
  10            0           1           1           1           1           1           1           1           1           1
  11            0           1           1           1           1           1           1           1           1           0
  12            1           1           1           1           1           1           1           1           1           0
  13            1           1           1           1           1           1           1           1           1           0
  14            0           1           1           1           1           1           1           1           1           0
  15            0           0           1           1           1           1           0           0           0           0
 OPTION 1 -- RECHARGE IN UZF TO TOP LAYER ONLY 



            ROUTING OVERLAND RUNOFF
 READING ON UNIT   19 WITH FORMAT: (20I4)              

                1           2           3           4           5           6           7           8           9          10
 ............................................................................................................................
   1            1           1           0           0           0           0           0           0           0           0
   2            1           1           1           0           0           3           3           3           0           0
   3            0           1           1           1           3           3           3           3           0           0
   4            8           8           2           2           2           2           2           3           3           0
   5            8           8           8           8           2           2           2           3           4           4
   6            8           8           8           8           8           2           2           4           4           4
   7            8           8           8           8           8           2           5           5           5           0
   8            0           8           8           8           8           2           5           5           5           0
   9            0           8           8           8           8           6           6           6           6           0
  10            0           8           8           8           8           6           6           6           6           6
  11            0           8           8           8           8           8           6           6           7           0
  12            8           8           8           8           8           8           6           7           7           0
  13            8           8           8           8           8           8           7           7           7           0
  14            0           8           8           8           8           8           7           7           7           0
  15            0           0           8           8           8           8           0           0           0           0



               SATURATED VERTICAL K
 READING ON UNIT   19 WITH FORMAT: (10F4.0)            

            1           2           3           4           5           6           7           8           9          10
 ........................................................................................................................
   1   5.0000E-06  5.0000E-06   0.000       0.000       0.000       0.000       0.000       0.000       0.000       0.000    
   2   5.0000E-06  5.0000E-06  5.0000E-06   0.000       0.000      5.0000E-06  5.0000E-06  5.0000E-06   0.000       0.000    
   3    0.000      5.0000E-06  5.0000E-06  5.0000E-06  5.0000E-06  5.0000E-06  5.0000E-06  5.0000E-06   0.000       0.000    
   4   5.0000E-06  5.0000E-06  5.0000E-06  5.0000E-06  5.0000E-06  5.0000E-06  5.0000E-06  5.0000E-06  5.0000E-06   0.000    
   5   5.0000E-06  5.0000E-06  5.0000E-06  5.0000E-06  5.0000E-06  5.0000E-06  5.0000E-06  5.0000E-06  5.0000E-06  5.0000E-06
   6   5.0000E-06  5.0000E-06  5.0000E-06  5.0000E-06  5.0000E-06  5.0000E-06  5.0000E-06  5.0000E-06  5.0000E-06  5.0000E-06
   7   5.0000E-06  5.0000E-06  5.0000E-06  5.0000E-06  5.0000E-06  5.0000E-06  5.0000E-06  5.0000E-06  5.0000E-06   0.000    
   8    0.000      5.0000E-06  5.0000E-06  5.0000E-06  5.0000E-06  5.0000E-06  5.0000E-06  5.0000E-06  5.0000E-06   0.000    
   9    0.000      5.0000E-06  5.0000E-06  5.0000E-06  5.0000E-06  5.0000E-06  5.0000E-06  5.0000E-06  5.0000E-06   0.000    
  10    0.000      5.0000E-06  5.0000E-06  5.0000E-06  5.0000E-06  5.0000E-06  5.0000E-06  5.0000E-06  5.0000E-06  5.0000E-06
  11    0.000      5.0000E-06  5.0000E-06  5.0000E-06  5.0000E-06  5.0000E-06  5.0000E-06  5.0000E-06  5.0000E-06   0.000    
  12   5.0000E-06  5.0000E-06  5.0000E-06  5.0000E-06  5.0000E-06  5.0000E-06  5.0000E-06  5.0000E-06  5.0000E-06   0.000    
  13   5.0000E-06  5.0000E-06  5.0000E-06  5.0000E-06  5.0000E-06  5.0000E-06  5.0000E-06  5.0000E-06  5.0000E-06   0.000    
  14    0.000      5.0000E-06  5.0000E-06  5.0000E-06  5.0000E-06  5.0000E-06  5.0000E-06  5.0000E-06  5.0000E-06   0.000    
  15    0.000       0.000      5.0000E-06  5.0000E-06  5.0000E-06  5.0000E-06   0.000       0.000       0.000       0.000    



            LAND SURFACE VERTICAL K
 READING ON UNIT   19 WITH FORMAT: (10F4.0)            

            1           2           3           4           5           6           7           8           9          10
 ........................................................................................................................
   1   5.0000E-06  5.0000E-06   0.000       0.000       0.000       0.000       0.000       0.000       0.000       0.000    
   2   5.0000E-06  5.0000E-06  5.0000E-06   0.000       0.000      5.0000E-06  5.0000E-06  5.0000E-06   0.000       0.000    
   3    0.000      5.0000E-06  5.0000E-06  5.0000E-06  5.0000E-06  5.0000E-06  5.0000E-06  5.0000E-06   0.000       0.000    
   4   5.0000E-06  5.0000E-06  5.0000E-06  5.0000E-06  5.0000E-06  5.0000E-06  5.0000E-06  5.0000E-06  5.0000E-06   0.000    
   5   5.0000E-06  5.0000E-06  5.0000E-06  5.0000E-06  5.0000E-06  5.0000E-06  5.0000E-06  5.0000E-06  5.0000E-06  5.0000E-06
   6   5.0000E-06  5.0000E-06  5.0000E-06  5.0000E-06  5.0000E-06  5.0000E-06  5.0000E-06  5.0000E-06  5.0000E-06  5.0000E-06
   7   5.0000E-06  5.0000E-06  5.0000E-06  5.0000E-06  5.0000E-06  5.0000E-06  5.0000E-06  5.0000E-06  5.0000E-06   0.000    
   8    0.000      5.0000E-06  5.0000E-06  5.0000E-06  5.0000E-06  5.0000E-06  5.0000E-06  5.0000E-06  5.0000E-06   0.000    
   9    0.000      5.0000E-06  5.0000E-06  5.0000E-06  5.0000E-06  5.0000E-06  5.0000E-06  5.0000E-06  5.0000E-06   0.000    
  10    0.000      5.0000E-06  5.0000E-06  5.0000E-06  5.0000E-06  5.0000E-06  5.0000E-06  5.0000E-06  5.0000E-06  5.0000E-06
  11    0.000      5.0000E-06  5.0000E-06  5.0000E-06  5.0000E-06  5.0000E-06  5.0000E-06  5.0000E-06  5.0000E-06   0.000    
  12   5.0000E-06  5.0000E-06  5.0000E-06  5.0000E-06  5.0000E-06  5.0000E-06  5.0000E-06  5.0000E-06  5.0000E-06   0.000    
  13   5.0000E-06  5.0000E-06  5.0000E-06  5.0000E-06  5.0000E-06  5.0000E-06  5.0000E-06  5.0000E-06  5.0000E-06   0.000    
  14    0.000      5.0000E-06  5.0000E-06  5.0000E-06  5.0000E-06  5.0000E-06  5.0000E-06  5.0000E-06  5.0000E-06   0.000    
  15    0.000       0.000      5.0000E-06  5.0000E-06  5.0000E-06  5.0000E-06   0.000       0.000       0.000       0.000    

     BROOKS-COREY EPSILON =   5.50000    

  SATURATED WATER CONTENT =  0.220000    

   RESIDUAL WATER CONTENT =  5.000000E-02

    INITIAL WATER CONTENT =  0.100000    

UNSATURATED FLOW RESULTS WILL BE PRINTED TO SEPARATE FILES FOR SELECTED MODEL CELLS, AND TIME STEPS AS DEFINED BY OUTPUT CONTROL PACKAGE 

SELECTED MODEL CELLS ARE: 
 ROW NUMBER  COLUMN NUMBER  FORTRAN UNIT NUMBER  OUTPUT OPTION


       3             6                 65                 1
       6             8                 66                 2
       6             7                 67                 3
       0             0                 68                 4



   9 GAGING STATIONS WERE SPECIFIED.
     (Lakes are identified by a negative value of the Lake Number)
     RECORDS WILL BE WRITTEN TO SEPARATE OUTPUT FILES REPRESENTED BY FOLLOWING UNIT NUMBERS:

 Stream Gages:
  GAGE #   SEGMENT   REACH   UNIT   OUTTYPE
       1       1       4      83       1
       2       2       3      84       1
       3       3       5      85       1
       4       4       3      86       1
       5       5       4      87       4
       6       6       5      88       4
       7       7       3      89       4
       8       8       6      90       4
       9       9       1      91       5





 AGO -- AGO PACKAGE FOR NWT VERSION 1.1.3,  8/01/2017 INPUT READ FROM UNIT   57

 PROCESSING AGO OPTIONS
 
AGRICULTURAL DEMANDS WILL BE 
CALCULATED USING ET DEFICIT
 
  Option to apply surface water as irrigtion is active. Pumped irrigation water will be applied to          1 UZF Cells.
  Option to pump supplmental water for surface diversion shortfall is activted.  A total of          6supplemental wells are active
  Option to apply pumped water as irrigtion is active. Pumped irrigation water will be applied to          6 UZF Cells.
  The maximum number of wells for supplementing diversions or for applying irrigation is          6 wells.

 END PROCESSING AGO OPTIONS
1
                            STRESS PERIOD NO.    1, LENGTH =   86400.00    
                            -----------------------------------------------

                              NUMBER OF TIME STEPS =     1

                               MULTIPLIER FOR DELT =     1.000

                            INITIAL TIME STEP SIZE =   86400.00    

 WELL NO.  LAYER   ROW   COL   STRESS RATE         
 --------------------------------------------------
      1      1      6      4       0.000    
      2      1      6      7       0.000    
      3      1      7      4       0.000    
      4      1      7      5       0.000    
      5      1      8      4       0.000    
      6      1      8      5       0.000    
      7      1      9      4       0.000    
      8      1      9      5       0.000    
      9      1     10      4       0.000    
     10      1     10      5       0.000    

     10 WELLS

 BOUND. NO. LAYER   ROW   COL     STAGE      CONDUCTANCE         
 ----------------------------------------------------------------
      1      1     13      1       988.0          0.3800E-01
      2      1     14      9       1045.          0.3800E-01

      2 GHB CELLS



 CLASSIFICATION & COUNT OF STREAM SEGMENTS BASED ON SOURCE OF INFLOW:

                HEADWATER     DIVERSION     RECEIVES TRIBUTARY FLOW
                ---------     ---------     -----------------------
                     3              2               4



                    INPUT DATA FOR EACH STREAM SEGMENT
 ---------------------------------------------------------------------------------------------

 SEGMENT    SEG.     INFLOW   OVERLAND   STREAM    STREAM   ICALC  OUTFLOW  DIVERSION PRIORITY
    NO.    LENGTH     RATE     RUNOFF      ET       PPT.    METH.  TO SEG.  FROM SEG.    NO.

      1  2.305E+04 2.500E+01 0.000E+00 0.000E+00 0.000E+00    4        2        0        0
      2  2.650E+04 0.000E+00 0.000E+00 0.000E+00 0.000E+00    1        6        0        0
      3  2.750E+04 2.000E+00 0.000E+00 0.000E+00 0.000E+00    0        5        1        0
      4  1.100E+04 1.000E+01 0.000E+00 0.000E+00 0.000E+00    1        5        0        0
      5  1.500E+04 0.000E+00 0.000E+00 0.000E+00 0.000E+00    3        6        0        0
      6  2.200E+04 0.000E+00 0.000E+00 0.000E+00 0.000E+00    1        8        0        0
      7  1.550E+04 1.500E+02 0.000E+00 0.000E+00 0.000E+00    2        8        0        0
      8  2.800E+04 0.000E+00 0.000E+00 0.000E+00 0.000E+00    2        0        0        0
      9  5.000E+01 0.000E+00 0.000E+00 0.000E+00 0.000E+00    1        0        2        0


         STREAMBED PROPERTIES AND STREAM DIMENSIONS

 SEGMENT     BED HYD. COND.      BED THICKNESS     ELEV.-TOP OF BED     WIDTH OF STREAM     DEPTH OF STREAM    STREAM ROUGHNESS
    No.     UPPER     LOWER     UPPER     LOWER     UPPER     LOWER     UPPER     LOWER     UPPER     LOWER   CHANNEL      BANK

     1  3.000E-05 3.000E-05 3.000E+00 3.000E+00 1.095E+03 1.075E+03
     2  3.000E-05 3.000E-05 3.000E+00 3.000E+00 1.075E+03 1.050E+03 1.200E+01 1.200E+01                     3.000E-02
     3  3.000E-05 3.000E-05 2.000E+00 2.000E+00 1.075E+03 1.060E+03 1.000E+01 6.000E+00 2.000E+00 1.000E+00
     4  3.000E-05 3.000E-05 3.000E+00 3.000E+00 1.080E+03 1.060E+03 1.000E+01 1.000E+01                     3.000E-02
     5  3.000E-05 3.000E-05 3.000E+00 3.000E+00 1.060E+03 1.045E+03
     6  3.000E-05 3.000E-05 3.000E+00 3.000E+00 1.045E+03 1.025E+03 1.200E+01 1.200E+01                     3.000E-02
     7  6.000E-05 6.000E-05 3.000E+00 3.000E+00 1.040E+03 1.025E+03                                         2.500E-02 4.500E-02
     8  6.000E-05 6.000E-05 3.000E+00 3.000E+00 1.025E+03 9.900E+02                                         2.500E-02 4.500E-02
     9  0.000E+00 0.000E+00 3.000E+00 3.000E+00 1.079E+03 1.078E+03 4.000E+00 4.000E+00                     3.000E-02

  EIGHT POINT CROSS-SECTION DATA FOR SEGMENTS WITH ICALC = 2
    X VALUES X VALUES START FROM LEFT SIDE LOOKING DOWNSTREAM

     SEGMENT NO.        X1        X2        X3        X4        X5        X6        X7        X8
            7      0.000E+00 1.000E+01 8.000E+01 1.000E+02 1.500E+02 1.700E+02 2.400E+02 2.500E+02
            8      0.000E+00 1.000E+01 8.000E+01 1.000E+02 1.500E+02 1.700E+02 2.400E+02 2.500E+02

    Z VALUES ARE RELATIVE TO STREAMBED ELEVATION

     SEGMENT NO.          Z1        Z2        Z3        Z4        Z5        Z6        Z7        Z8
            7      2.000E+01 1.300E+01 1.000E+01 2.000E+00 0.000E+00 1.000E+01 1.300E+01 2.000E+01
            8      2.500E+01 1.700E+01 1.300E+01 4.000E+00 0.000E+00 1.000E+01 1.600E+01 2.000E+01

 STREAMFLOW RELATION WITH DEPTH IS BASED ON EQUATION Q = CDPTH*(DEPTH)**FDPTH
 STREAMFLOW RELATION WITH WIDTH IS BASED ON EQUATION Q = AWDTH*(WIDTH)**BWDTH

 SEGMENT NO.      CDPTH     FDPTH    AWDTH     BWDTH

          5 3.000E-01 3.500E-01 3.800E+00 6.000E-01

 STREAMFLOW RELATION WITH DEPTH AND WIDTH IS BASED ON TABULATED VALUES

  SEGMENT NO.   STREAMFLOW       DEPTH       WIDTH

          1     5.0000E-01   2.5000E-01   3.0000E+00
          1     1.0000E+00   4.0000E-01   3.5000E+00
          1     2.0000E+00   5.5000E-01   4.2000E+00
          1     4.0000E+00   7.0000E-01   5.3000E+00
          1     7.0000E+00   8.0000E-01   7.0000E+00
          1     1.0000E+01   9.0000E-01   8.5000E+00
          1     2.0000E+01   1.1000E+00   1.2000E+01
          1     3.0000E+01   1.2500E+00   1.4000E+01
          1     5.0000E+01   1.4000E+00   1.7000E+01
          1     7.5000E+01   1.7000E+00   2.0000E+01
          1     1.0000E+02   1.8000E+00   2.2000E+01



TABULAR INFLOWS WERE READ FOR SEGMENT      1
FROM FILE UNIT NUMBER     55

          TIMES                    INFLOWS
             0.0000000000         4.0000000000
       2630000.0000000000        22.0000000000
       5260000.0000000000        42.0000000000
       7880000.0000000000        77.0000000000
      10500000.0000000000        28.0000000000
      13100000.0000000000        99.0000000000
      15800000.0000000000        63.0000000000
      18400000.0000000000        35.0000000000
      21000000.0000000000        21.0000000000
      23700000.0000000000         7.0000000000
      26300000.0000000000         3.5000000000
      28900000.0000000000         3.2999999523
      31500000.0000000000         3.0999999046
      34200000.0000000000        10.5000000000
      36800000.0000000000        21.0000000000
      39400000.0000000000        98.0000000000
      42000000.0000000000        35.0000000000
      44700000.0000000000        63.0000000000
      47300000.0000000000        28.0000000000
      49900000.0000000000        14.0000000000
      52600000.0000000000         7.0000000000
      55200000.0000000000         3.5000000000
      57800000.0000000000         3.2000000477
      60400000.0000000000         3.5000000000
      63100000.0000000000         3.5000000000
      65700000.0000000000        14.0000000000
TABULAR INFLOWS WERE READ FOR SEGMENT      9
FROM FILE UNIT NUMBER     56

          TIMES                    INFLOWS
             0.0000000000         1.0000000000
         86400.0000000000         1.0000000000
        173000.0000000000         0.0000000000
        259000.0000000000         0.0000000000
        346000.0000000000         0.0000000000
        432000.0000000000         0.0000000000
        518000.0000000000         0.0000000000
        605000.0000000000         0.0000000000
        691000.0000000000         0.0000000000
        778000.0000000000         0.0000000000
        864000.0000000000         0.0000000000
        950000.0000000000         0.0000000000
       1040000.0000000000         0.0000000000
       1120000.0000000000         0.0000000000
       1210000.0000000000         0.0000000000
       1300000.0000000000         0.0000000000
       1380000.0000000000         0.0000000000
       1470000.0000000000         0.0000000000
       1560000.0000000000         0.0000000000
       1640000.0000000000         0.0000000000
       1730000.0000000000         0.0000000000
       1810000.0000000000         0.0000000000
       1900000.0000000000         0.0000000000
       1990000.0000000000         0.0000000000
       2070000.0000000000         0.0000000000
       2160000.0000000000         0.0000000000
       2250000.0000000000         0.0000000000
       2330000.0000000000         0.0000000000
       2420000.0000000000         0.0000000000
       2510000.0000000000         0.0000000000
       2590000.0000000000         0.0000000000
       2680000.0000000000         0.0000000000
       2760000.0000000000         0.0000000000
       2850000.0000000000         0.0000000000
       2940000.0000000000         0.0000000000
       3020000.0000000000         0.0000000000
       3110000.0000000000         0.0000000000
       3200000.0000000000         0.0000000000
       3280000.0000000000         0.0000000000
       3370000.0000000000         0.0000000000
       3460000.0000000000         0.0000000000
       3540000.0000000000         0.0000000000
       3630000.0000000000         0.0000000000
       3720000.0000000000         0.0000000000
       3800000.0000000000         0.0000000000
       3890000.0000000000         0.0000000000
       3970000.0000000000         0.0000000000
       4060000.0000000000         0.0000000000
       4150000.0000000000         0.0000000000
       4230000.0000000000         0.0000000000
       4320000.0000000000         0.0000000000
       4410000.0000000000         0.0000000000
       4490000.0000000000         0.0000000000
       4580000.0000000000         0.0000000000
       4670000.0000000000         0.0000000000
       4750000.0000000000         0.0000000000
       4840000.0000000000         0.0000000000
       4920000.0000000000         0.0000000000
       5010000.0000000000         0.0000000000
       5100000.0000000000         0.0000000000
       5180000.0000000000         0.0000000000
       5270000.0000000000         0.0000000000
       5360000.0000000000         0.0000000000
       5440000.0000000000         0.0000000000
       5530000.0000000000         0.0000000000
       5620000.0000000000         0.0000000000
       5700000.0000000000         0.0000000000
       5790000.0000000000         0.0000000000
       5880000.0000000000         0.0000000000
       5960000.0000000000         0.0000000000
       6050000.0000000000         0.0000000000
       6130000.0000000000         0.0000000000
       6220000.0000000000         0.0000000000
       6310000.0000000000         0.0000000000
       6390000.0000000000         0.0000000000
       6480000.0000000000         0.0000000000
       6570000.0000000000         0.0000000000
       6650000.0000000000         0.0000000000
       6740000.0000000000         0.0000000000
       6830000.0000000000         0.0000000000
       6910000.0000000000         0.0000000000
       7000000.0000000000         0.0000000000
       7080000.0000000000         0.0000000000
       7170000.0000000000         0.0000000000
       7260000.0000000000         0.0000000000
       7340000.0000000000         0.0000000000
       7430000.0000000000         0.0000000000
       7520000.0000000000         0.0000000000
       7600000.0000000000         0.0000000000
       7690000.0000000000         0.0000000000
       7780000.0000000000         0.0000000000
       7860000.0000000000         0.0000000000
       7950000.0000000000         0.0000000000
       8040000.0000000000         0.0000000000
       8120000.0000000000         0.0000000000
       8210000.0000000000         0.0000000000
       8290000.0000000000         0.0000000000
       8380000.0000000000         0.0000000000
       8470000.0000000000         0.0000000000
       8550000.0000000000         0.0000000000
       8640000.0000000000         0.0000000000
       8730000.0000000000         0.0000000000
       8810000.0000000000         0.0000000000
       8900000.0000000000         0.0000000000
       8990000.0000000000         0.0000000000
       9070000.0000000000         0.0000000000
       9160000.0000000000         0.0000000000
       9240000.0000000000         0.0000000000
       9330000.0000000000         0.0000000000
       9420000.0000000000         0.0000000000
       9500000.0000000000         0.0000000000
       9590000.0000000000         0.0000000000
       9680000.0000000000         0.0000000000
       9760000.0000000000         0.0000000000
       9850000.0000000000         0.0000000000
       9940000.0000000000         0.0000000000
      10000000.0000000000         0.0000000000
      10100000.0000000000         0.0000000000
      10200000.0000000000         0.0000000000
      10300000.0000000000         0.0000000000
      10400000.0000000000         0.0000000000
      10500000.0000000000         0.0000000000
      10500000.0000000000         0.0000000000
      10600000.0000000000         0.0000000000
      10700000.0000000000         0.0000000000
      10800000.0000000000         0.0000000000
      10900000.0000000000         0.0000000000
      11000000.0000000000         0.0000000000
      11100000.0000000000         0.0000000000
      11100000.0000000000         0.0000000000
      11200000.0000000000         0.0000000000
      11300000.0000000000         0.0000000000
      11400000.0000000000         0.0000000000
      11500000.0000000000         0.0000000000
      11600000.0000000000         0.0000000000
      11700000.0000000000         0.0000000000
      11800000.0000000000         0.0000000000
      11800000.0000000000         0.0000000000
      11900000.0000000000         0.0000000000
      12000000.0000000000         0.0000000000
      12100000.0000000000         0.0000000000
      12200000.0000000000         0.0000000000
      12300000.0000000000         0.0000000000
      12400000.0000000000         0.0000000000
      12400000.0000000000         0.0000000000
      12500000.0000000000         0.0000000000
      12600000.0000000000         0.0000000000
      12700000.0000000000         0.0000000000
      12800000.0000000000         0.0000000000
      12900000.0000000000         0.0000000000
      13000000.0000000000         0.0000000000
      13000000.0000000000         5.0000000000
      13100000.0000000000         5.0000000000
      13200000.0000000000         5.0000000000
      13300000.0000000000         5.0000000000
      13400000.0000000000         5.0000000000
      13500000.0000000000         5.0000000000
      13600000.0000000000         5.0000000000
      13700000.0000000000         5.0000000000
      13700000.0000000000         5.0000000000
      13800000.0000000000         5.0000000000
      13900000.0000000000         5.0000000000
      14000000.0000000000         5.0000000000
      14100000.0000000000         5.0000000000
      14200000.0000000000         5.0000000000
      14300000.0000000000         5.0000000000
      14300000.0000000000         5.0000000000
      14400000.0000000000         5.0000000000
      14500000.0000000000         5.0000000000
      14600000.0000000000         5.0000000000
      14700000.0000000000         5.0000000000
      14800000.0000000000         5.0000000000
      14900000.0000000000         5.0000000000
      14900000.0000000000         5.0000000000
      15000000.0000000000         5.0000000000
      15100000.0000000000         5.0000000000
      15200000.0000000000         5.0000000000
      15300000.0000000000         5.0000000000
      15400000.0000000000         5.0000000000
      15500000.0000000000         5.0000000000
      15600000.0000000000         5.0000000000
      15600000.0000000000         5.0000000000
      15700000.0000000000         5.0000000000
      15800000.0000000000         5.0000000000
      15900000.0000000000         5.0000000000
      16000000.0000000000         5.0000000000
      16100000.0000000000         5.0000000000
      16200000.0000000000         5.0000000000
      16200000.0000000000         5.0000000000
      16300000.0000000000         5.0000000000
      16400000.0000000000         5.0000000000
      16500000.0000000000         5.0000000000
      16600000.0000000000         5.0000000000
      16700000.0000000000         5.0000000000
      16800000.0000000000         5.0000000000
      16800000.0000000000         5.0000000000
      16900000.0000000000         5.0000000000
      17000000.0000000000         5.0000000000
      17100000.0000000000         5.0000000000
      17200000.0000000000         5.0000000000
      17300000.0000000000         5.0000000000
      17400000.0000000000         5.0000000000
      17500000.0000000000         5.0000000000
      17500000.0000000000         5.0000000000
      17600000.0000000000         5.0000000000
      17700000.0000000000         5.0000000000
      17800000.0000000000         5.0000000000
      17900000.0000000000         5.0000000000
      18000000.0000000000         5.0000000000
      18100000.0000000000         5.0000000000
      18100000.0000000000         5.0000000000
      18200000.0000000000         5.0000000000
      18300000.0000000000         5.0000000000
      18400000.0000000000         5.0000000000
      18500000.0000000000         5.0000000000
      18600000.0000000000         5.0000000000
      18700000.0000000000         5.0000000000
      18700000.0000000000         5.0000000000
      18800000.0000000000         5.0000000000
      18900000.0000000000         5.0000000000
      19000000.0000000000         5.0000000000
      19100000.0000000000         5.0000000000
      19200000.0000000000         5.0000000000
      19300000.0000000000         5.0000000000
      19400000.0000000000         5.0000000000
      19400000.0000000000         5.0000000000
      19500000.0000000000         5.0000000000
      19600000.0000000000         5.0000000000
      19700000.0000000000         5.0000000000
      19800000.0000000000         5.0000000000
      19900000.0000000000         5.0000000000
      20000000.0000000000         5.0000000000
      20000000.0000000000         5.0000000000
      20100000.0000000000         5.0000000000
      20200000.0000000000         5.0000000000
      20300000.0000000000         5.0000000000
      20400000.0000000000         5.0000000000
      20500000.0000000000         5.0000000000
      20600000.0000000000         5.0000000000
      20600000.0000000000         5.0000000000
      20700000.0000000000         5.0000000000
      20800000.0000000000         5.0000000000
      20900000.0000000000         5.0000000000
      21000000.0000000000         5.0000000000
      21100000.0000000000         5.0000000000
      21200000.0000000000         5.0000000000
      21300000.0000000000         5.0000000000
      21300000.0000000000         5.0000000000
      21400000.0000000000         5.0000000000
      21500000.0000000000         5.0000000000
      21600000.0000000000         5.0000000000
      21700000.0000000000         5.0000000000
      21800000.0000000000         5.0000000000
      21900000.0000000000         5.0000000000
      21900000.0000000000         5.0000000000
      22000000.0000000000         5.0000000000
      22100000.0000000000         5.0000000000
      22200000.0000000000         5.0000000000
      22300000.0000000000         5.0000000000
      22400000.0000000000         5.0000000000
      22500000.0000000000         5.0000000000
      22600000.0000000000         5.0000000000
      22600000.0000000000         5.0000000000
      22700000.0000000000         5.0000000000
      22800000.0000000000         5.0000000000
      22900000.0000000000         5.0000000000
      23000000.0000000000         5.0000000000
      23100000.0000000000         5.0000000000
      23200000.0000000000         5.0000000000
      23200000.0000000000         5.0000000000
      23300000.0000000000         5.0000000000
      23400000.0000000000         5.0000000000
      23500000.0000000000         5.0000000000
      23600000.0000000000         5.0000000000
      23700000.0000000000         5.0000000000
      23800000.0000000000         5.0000000000
      23800000.0000000000         5.0000000000
      23900000.0000000000         5.0000000000
      24000000.0000000000         5.0000000000
      24100000.0000000000         5.0000000000
      24200000.0000000000         5.0000000000
      24300000.0000000000         5.0000000000
      24400000.0000000000         5.0000000000
      24500000.0000000000         5.0000000000
      24500000.0000000000         5.0000000000
      24600000.0000000000         5.0000000000
      24700000.0000000000         5.0000000000
      24800000.0000000000         0.0000000000
      24900000.0000000000         0.0000000000
      25000000.0000000000         0.0000000000
      25100000.0000000000         0.0000000000
      25100000.0000000000         0.0000000000
      25200000.0000000000         0.0000000000
      25300000.0000000000         0.0000000000
      25400000.0000000000         0.0000000000
      25500000.0000000000         0.0000000000
      25600000.0000000000         0.0000000000
      25700000.0000000000         0.0000000000
      25700000.0000000000         0.0000000000
      25800000.0000000000         0.0000000000
      25900000.0000000000         0.0000000000
      26000000.0000000000         0.0000000000
      26100000.0000000000         0.0000000000
      26200000.0000000000         0.0000000000
      26300000.0000000000         0.0000000000
      26400000.0000000000         0.0000000000
      26400000.0000000000         0.0000000000
      26500000.0000000000         0.0000000000
      26600000.0000000000         0.0000000000
      26700000.0000000000         0.0000000000
      26800000.0000000000         0.0000000000
      26900000.0000000000         0.0000000000
      27000000.0000000000         0.0000000000
      27000000.0000000000         0.0000000000
      27100000.0000000000         0.0000000000
      27200000.0000000000         0.0000000000
      27300000.0000000000         0.0000000000
      27400000.0000000000         0.0000000000
      27500000.0000000000         0.0000000000
      27600000.0000000000         0.0000000000
      27600000.0000000000         0.0000000000
      27700000.0000000000         0.0000000000
      27800000.0000000000         0.0000000000
      27900000.0000000000         0.0000000000
      28000000.0000000000         0.0000000000
      28100000.0000000000         0.0000000000
      28200000.0000000000         0.0000000000
      28300000.0000000000         0.0000000000
      28300000.0000000000         0.0000000000
      28400000.0000000000         0.0000000000
      28500000.0000000000         0.0000000000
      28600000.0000000000         0.0000000000
      28700000.0000000000         0.0000000000
      28800000.0000000000         0.0000000000
      28900000.0000000000         0.0000000000
      28900000.0000000000         0.0000000000
      29000000.0000000000         0.0000000000
      29100000.0000000000         0.0000000000
      29200000.0000000000         0.0000000000
      29300000.0000000000         0.0000000000
      29400000.0000000000         0.0000000000
      29500000.0000000000         0.0000000000
      29500000.0000000000         0.0000000000
      29600000.0000000000         0.0000000000
      29700000.0000000000         0.0000000000
      29800000.0000000000         0.0000000000
      29900000.0000000000         0.0000000000
      30000000.0000000000         0.0000000000
      30100000.0000000000         0.0000000000
      30200000.0000000000         0.0000000000
      30200000.0000000000         0.0000000000
      30300000.0000000000         0.0000000000
      30400000.0000000000         0.0000000000
      30500000.0000000000         0.0000000000
      30600000.0000000000         0.0000000000
      30700000.0000000000         0.0000000000
      30800000.0000000000         0.0000000000
      30800000.0000000000         0.0000000000
      30900000.0000000000         0.0000000000
      31000000.0000000000         0.0000000000
      31100000.0000000000         0.0000000000
      31200000.0000000000         0.0000000000
      31300000.0000000000         0.0000000000
      31400000.0000000000         0.0000000000
      31400000.0000000000         0.0000000000
      31500000.0000000000         0.0000000000
      31600000.0000000000         0.0000000000
      31700000.0000000000         0.0000000000
      31800000.0000000000         0.0000000000
      31900000.0000000000         0.0000000000
      32000000.0000000000         0.0000000000
      32100000.0000000000         0.0000000000
      32100000.0000000000         0.0000000000
      32200000.0000000000         0.0000000000
      32300000.0000000000         0.0000000000
      32400000.0000000000         0.0000000000
      32500000.0000000000         0.0000000000
      32600000.0000000000         0.0000000000
      32700000.0000000000         0.0000000000
      32700000.0000000000         0.0000000000
      32800000.0000000000         0.0000000000
      32900000.0000000000         0.0000000000
      33000000.0000000000         0.0000000000
      33100000.0000000000         0.0000000000
      33200000.0000000000         0.0000000000
      33300000.0000000000         0.0000000000
      33400000.0000000000         0.0000000000
      33400000.0000000000         0.0000000000
      33500000.0000000000         0.0000000000
      33600000.0000000000         0.0000000000
      33700000.0000000000         0.0000000000
      33800000.0000000000         0.0000000000
      33900000.0000000000         0.0000000000
      34000000.0000000000         0.0000000000
      34000000.0000000000         0.0000000000
      34100000.0000000000         0.0000000000
      34200000.0000000000         0.0000000000
      34300000.0000000000         0.0000000000
      34400000.0000000000         0.0000000000
      34500000.0000000000         0.0000000000
      34600000.0000000000         0.0000000000
      34600000.0000000000         0.0000000000
      34700000.0000000000         0.0000000000
      34800000.0000000000         0.0000000000
      34900000.0000000000         0.0000000000
      35000000.0000000000         0.0000000000
      35100000.0000000000         0.0000000000
      35200000.0000000000         0.0000000000
      35300000.0000000000         0.0000000000
      35300000.0000000000         0.0000000000
      35400000.0000000000         0.0000000000
      35500000.0000000000         0.0000000000
      35600000.0000000000         0.0000000000
      35700000.0000000000         0.0000000000
      35800000.0000000000         0.0000000000
      35900000.0000000000         0.0000000000
      35900000.0000000000         0.0000000000
      36000000.0000000000         0.0000000000
      36100000.0000000000         0.0000000000
      36200000.0000000000         0.0000000000
      36300000.0000000000         0.0000000000
      36400000.0000000000         0.0000000000
      36500000.0000000000         0.0000000000
      36500000.0000000000         0.0000000000
      36600000.0000000000         0.0000000000
      36700000.0000000000         0.0000000000
      36800000.0000000000         0.0000000000
      36900000.0000000000         0.0000000000
      37000000.0000000000         0.0000000000
      37100000.0000000000         0.0000000000
      37200000.0000000000         0.0000000000
      37200000.0000000000         0.0000000000
      37300000.0000000000         0.0000000000
      37400000.0000000000         0.0000000000
      37500000.0000000000         0.0000000000
      37600000.0000000000         0.0000000000
      37700000.0000000000         0.0000000000
      37800000.0000000000         0.0000000000
      37800000.0000000000         0.0000000000
      37900000.0000000000         0.0000000000
      38000000.0000000000         0.0000000000
      38100000.0000000000         0.0000000000
      38200000.0000000000         0.0000000000
      38300000.0000000000         0.0000000000
      38400000.0000000000         0.0000000000
      38400000.0000000000         0.0000000000
      38500000.0000000000         0.0000000000
      38600000.0000000000         0.0000000000
      38700000.0000000000         0.0000000000
      38800000.0000000000         0.0000000000
      38900000.0000000000         0.0000000000
      39000000.0000000000         0.0000000000
      39100000.0000000000         0.0000000000
      39100000.0000000000         0.0000000000
      39200000.0000000000         0.0000000000
      39300000.0000000000         0.0000000000
      39400000.0000000000         0.0000000000
      39500000.0000000000         0.0000000000
      39600000.0000000000         0.0000000000
      39700000.0000000000         0.0000000000
      39700000.0000000000         0.0000000000
      39800000.0000000000         0.0000000000
      39900000.0000000000         0.0000000000
      40000000.0000000000         0.0000000000
      40100000.0000000000         0.0000000000
      40200000.0000000000         0.0000000000
      40300000.0000000000         0.0000000000
      40300000.0000000000         0.0000000000
      40400000.0000000000         0.0000000000
      40500000.0000000000         0.0000000000
      40600000.0000000000         0.0000000000
      40700000.0000000000         0.0000000000
      40800000.0000000000         0.0000000000
      40900000.0000000000         0.0000000000
      41000000.0000000000         0.0000000000
      41000000.0000000000         0.0000000000
      41100000.0000000000         0.0000000000
      41200000.0000000000         0.0000000000
      41300000.0000000000         0.0000000000
      41400000.0000000000         0.0000000000
      41500000.0000000000         0.0000000000
      41600000.0000000000         0.0000000000
      41600000.0000000000         0.0000000000
      41700000.0000000000         0.0000000000
      41800000.0000000000         0.0000000000
      41900000.0000000000         0.0000000000
      42000000.0000000000         0.0000000000
      42100000.0000000000         0.0000000000
      42200000.0000000000         0.0000000000
      42200000.0000000000         0.0000000000
      42300000.0000000000         0.0000000000
      42400000.0000000000         0.0000000000
      42500000.0000000000         0.0000000000
      42600000.0000000000         0.0000000000
      42700000.0000000000         0.0000000000
      42800000.0000000000         0.0000000000
      42900000.0000000000         0.0000000000
      42900000.0000000000         0.0000000000
      43000000.0000000000         0.0000000000
      43100000.0000000000         0.0000000000
      43200000.0000000000         5.0000000000
      43300000.0000000000         5.0000000000
      43400000.0000000000         5.0000000000
      43500000.0000000000         5.0000000000
      43500000.0000000000         5.0000000000
      43600000.0000000000         5.0000000000
      43700000.0000000000         5.0000000000
      43800000.0000000000         5.0000000000
      43900000.0000000000         5.0000000000
      44000000.0000000000         5.0000000000
      44100000.0000000000         5.0000000000
      44200000.0000000000         5.0000000000
      44200000.0000000000         5.0000000000
      44300000.0000000000         5.0000000000
      44400000.0000000000         5.0000000000
      44500000.0000000000         5.0000000000
      44600000.0000000000         5.0000000000
      44700000.0000000000         5.0000000000
      44800000.0000000000         5.0000000000
      44800000.0000000000         5.0000000000
      44900000.0000000000         5.0000000000
      45000000.0000000000         5.0000000000
      45100000.0000000000         5.0000000000
      45200000.0000000000         5.0000000000
      45300000.0000000000         5.0000000000
      45400000.0000000000         5.0000000000
      45400000.0000000000         5.0000000000
      45500000.0000000000         5.0000000000
      45600000.0000000000         5.0000000000
      45700000.0000000000         5.0000000000
      45800000.0000000000         5.0000000000
      45900000.0000000000         5.0000000000
      46000000.0000000000         5.0000000000
      46100000.0000000000         5.0000000000
      46100000.0000000000         5.0000000000
      46200000.0000000000         5.0000000000
      46300000.0000000000         5.0000000000
      46400000.0000000000         5.0000000000
      46500000.0000000000         5.0000000000
      46600000.0000000000         5.0000000000
      46700000.0000000000         5.0000000000
      46700000.0000000000         5.0000000000
      46800000.0000000000         5.0000000000
      46900000.0000000000         5.0000000000
      47000000.0000000000         5.0000000000
      47100000.0000000000         5.0000000000
      47200000.0000000000         5.0000000000
      47300000.0000000000         5.0000000000
      47300000.0000000000         5.0000000000
      47400000.0000000000         5.0000000000
      47500000.0000000000         5.0000000000
      47600000.0000000000         5.0000000000
      47700000.0000000000         5.0000000000
      47800000.0000000000         5.0000000000
      47900000.0000000000         5.0000000000
      48000000.0000000000         5.0000000000
      48000000.0000000000         5.0000000000
      48100000.0000000000         5.0000000000
      48200000.0000000000         5.0000000000
      48300000.0000000000         5.0000000000
      48400000.0000000000         5.0000000000
      48500000.0000000000         5.0000000000
      48600000.0000000000         5.0000000000
      48600000.0000000000         5.0000000000
      48700000.0000000000         5.0000000000
      48800000.0000000000         5.0000000000
      48900000.0000000000         5.0000000000
      49000000.0000000000         5.0000000000
      49100000.0000000000         5.0000000000
      49200000.0000000000         5.0000000000
      49200000.0000000000         5.0000000000
      49300000.0000000000         5.0000000000
      49400000.0000000000         5.0000000000
      49500000.0000000000         5.0000000000
      49600000.0000000000         5.0000000000
      49700000.0000000000         5.0000000000
      49800000.0000000000         5.0000000000
      49900000.0000000000         5.0000000000
      49900000.0000000000         5.0000000000
      50000000.0000000000         5.0000000000
      50100000.0000000000         5.0000000000
      50200000.0000000000         5.0000000000
      50300000.0000000000         5.0000000000
      50400000.0000000000         5.0000000000
      50500000.0000000000         5.0000000000
      50500000.0000000000         5.0000000000
      50600000.0000000000         5.0000000000
      50700000.0000000000         5.0000000000
      50800000.0000000000         5.0000000000
      50900000.0000000000         5.0000000000
      51000000.0000000000         5.0000000000
      51100000.0000000000         5.0000000000
      51100000.0000000000         5.0000000000
      51200000.0000000000         5.0000000000
      51300000.0000000000         5.0000000000
      51400000.0000000000         5.0000000000
      51500000.0000000000         5.0000000000
      51600000.0000000000         5.0000000000
      51700000.0000000000         5.0000000000
      51800000.0000000000         5.0000000000
      51800000.0000000000         5.0000000000
      51900000.0000000000         5.0000000000
      52000000.0000000000         5.0000000000
      52100000.0000000000         5.0000000000
      52200000.0000000000         5.0000000000
      52300000.0000000000         5.0000000000
      52400000.0000000000         5.0000000000
      52400000.0000000000         5.0000000000
      52500000.0000000000         5.0000000000
      52600000.0000000000         5.0000000000
      52700000.0000000000         5.0000000000
      52800000.0000000000         5.0000000000
      52900000.0000000000         5.0000000000
      53000000.0000000000         5.0000000000
      53000000.0000000000         5.0000000000
      53100000.0000000000         5.0000000000
      53200000.0000000000         5.0000000000
      53300000.0000000000         5.0000000000
      53400000.0000000000         5.0000000000
      53500000.0000000000         5.0000000000
      53600000.0000000000         5.0000000000
      53700000.0000000000         5.0000000000
      53700000.0000000000         5.0000000000
      53800000.0000000000         5.0000000000
      53900000.0000000000         5.0000000000
      54000000.0000000000         5.0000000000
      54100000.0000000000         5.0000000000
      54200000.0000000000         5.0000000000
      54300000.0000000000         5.0000000000
      54300000.0000000000         5.0000000000
      54400000.0000000000         5.0000000000
      54500000.0000000000         5.0000000000
      54600000.0000000000         5.0000000000
      54700000.0000000000         5.0000000000
      54800000.0000000000         5.0000000000
      54900000.0000000000         5.0000000000
      55000000.0000000000         0.0000000000
      55000000.0000000000         0.0000000000
      55100000.0000000000         0.0000000000
      55200000.0000000000         0.0000000000
      55300000.0000000000         0.0000000000
      55400000.0000000000         0.0000000000
      55500000.0000000000         0.0000000000
      55600000.0000000000         0.0000000000
      55600000.0000000000         0.0000000000
      55700000.0000000000         0.0000000000
      55800000.0000000000         0.0000000000
      55900000.0000000000         0.0000000000
      56000000.0000000000         0.0000000000
      56100000.0000000000         0.0000000000
      56200000.0000000000         0.0000000000
      56200000.0000000000         0.0000000000
      56300000.0000000000         0.0000000000
      56400000.0000000000         0.0000000000
      56500000.0000000000         0.0000000000
      56600000.0000000000         0.0000000000
      56700000.0000000000         0.0000000000
      56800000.0000000000         0.0000000000
      56900000.0000000000         0.0000000000
      56900000.0000000000         0.0000000000
      57000000.0000000000         0.0000000000
      57100000.0000000000         0.0000000000
      57200000.0000000000         0.0000000000
      57300000.0000000000         0.0000000000
      57400000.0000000000         0.0000000000
      57500000.0000000000         0.0000000000
      57500000.0000000000         0.0000000000
      57600000.0000000000         0.0000000000
      57700000.0000000000         0.0000000000
      57800000.0000000000         0.0000000000
      57900000.0000000000         0.0000000000
      58000000.0000000000         0.0000000000
      58100000.0000000000         0.0000000000
      58100000.0000000000         0.0000000000
      58200000.0000000000         0.0000000000
      58300000.0000000000         0.0000000000
      58400000.0000000000         0.0000000000
      58500000.0000000000         0.0000000000
      58600000.0000000000         0.0000000000
      58700000.0000000000         0.0000000000
      58800000.0000000000         0.0000000000
      58800000.0000000000         0.0000000000
      58900000.0000000000         0.0000000000
      59000000.0000000000         0.0000000000
      59100000.0000000000         0.0000000000
      59200000.0000000000         0.0000000000
      59300000.0000000000         0.0000000000
      59400000.0000000000         0.0000000000
      59400000.0000000000         0.0000000000
      59500000.0000000000         0.0000000000
      59600000.0000000000         0.0000000000
      59700000.0000000000         0.0000000000
      59800000.0000000000         0.0000000000
      59900000.0000000000         0.0000000000
      60000000.0000000000         0.0000000000
      60000000.0000000000         0.0000000000
      60100000.0000000000         0.0000000000
      60200000.0000000000         0.0000000000
      60300000.0000000000         0.0000000000
      60400000.0000000000         0.0000000000
      60500000.0000000000         0.0000000000
      60600000.0000000000         0.0000000000
      60700000.0000000000         0.0000000000
      60700000.0000000000         0.0000000000
      60800000.0000000000         0.0000000000
      60900000.0000000000         0.0000000000
      61000000.0000000000         0.0000000000
      61100000.0000000000         0.0000000000
      61200000.0000000000         0.0000000000
      61300000.0000000000         0.0000000000
      61300000.0000000000         0.0000000000
      61400000.0000000000         0.0000000000
      61500000.0000000000         0.0000000000
      61600000.0000000000         0.0000000000
      61700000.0000000000         0.0000000000
      61800000.0000000000         0.0000000000
      61900000.0000000000         0.0000000000
      61900000.0000000000         0.0000000000
      62000000.0000000000         0.0000000000
      62100000.0000000000         0.0000000000
      62200000.0000000000         0.0000000000
      62300000.0000000000         0.0000000000
      62400000.0000000000         0.0000000000
      62500000.0000000000         0.0000000000
      62600000.0000000000         0.0000000000
      62600000.0000000000         0.0000000000
      62700000.0000000000         0.0000000000
      62800000.0000000000         0.0000000000
      62900000.0000000000         0.0000000000
      63000000.0000000000         0.0000000000
      63100000.0000000000         0.0000000000
      63200000.0000000000         0.0000000000
      63200000.0000000000         0.0000000000
      63300000.0000000000         0.0000000000
      63400000.0000000000         0.0000000000
      63500000.0000000000         0.0000000000
      63600000.0000000000         0.0000000000
      63700000.0000000000         0.0000000000
      63800000.0000000000         0.0000000000
      63800000.0000000000         0.0000000000
      63900000.0000000000         0.0000000000
      64000000.0000000000         0.0000000000
      64100000.0000000000         0.0000000000
      64200000.0000000000         0.0000000000
      64300000.0000000000         0.0000000000
      64400000.0000000000         0.0000000000
      64500000.0000000000         0.0000000000
      64500000.0000000000         0.0000000000
      64600000.0000000000         0.0000000000
      64700000.0000000000         0.0000000000
      64800000.0000000000         0.0000000000
      64900000.0000000000         0.0000000000
      65000000.0000000000         0.0000000000
      65100000.0000000000         0.0000000000
      65100000.0000000000         0.0000000000
      65200000.0000000000         0.0000000000
      65300000.0000000000         0.0000000000
      65400000.0000000000         0.0000000000
      65500000.0000000000         0.0000000000



            AREAL INFILTRATION RATE
 READING ON UNIT   19 WITH FORMAT: (10F4.0)            

            1           2           3           4           5           6           7           8           9          10
 ........................................................................................................................
   1   1.0000E-10  2.0000E-10   0.000       0.000       0.000       0.000       0.000       0.000       0.000       0.000    
   2   2.0000E-10  1.0000E-10  2.0000E-10   0.000       0.000      8.0000E-10  8.0000E-10  5.0000E-10   0.000       0.000    
   3    0.000      5.0000E-10  1.0000E-10  1.0000E-10  8.0000E-10  8.0000E-10  5.0000E-10  5.0000E-10   0.000       0.000    
   4   8.0000E-10  5.0000E-10  1.0000E-10  1.0000E-10  1.0000E-10  1.0000E-10  1.0000E-10  1.0000E-10  2.0000E-10   0.000    
   5   8.0000E-10  5.0000E-10  1.0000E-10  1.0000E-10  1.0000E-10  1.0000E-10  1.0000E-10  1.0000E-10  1.0000E-10  1.0000E-10
   6   8.0000E-10  5.0000E-10  5.0000E-10  2.0000E-10  2.0000E-10  1.0000E-10  1.0000E-10  1.0000E-10  1.0000E-10  5.0000E-10
   7   8.0000E-10  5.0000E-10  5.0000E-10  2.0000E-10  2.0000E-10  1.0000E-10  1.0000E-10  2.0000E-10  2.0000E-10   0.000    
   8    0.000      5.0000E-10  5.0000E-10  2.0000E-10  2.0000E-10  1.0000E-10  1.0000E-10  2.0000E-10  5.0000E-10   0.000    
   9    0.000      5.0000E-10  5.0000E-10  2.0000E-10  2.0000E-10  1.0000E-10  1.0000E-10  2.0000E-10  5.0000E-10   0.000    
  10    0.000      5.0000E-10  5.0000E-10  2.0000E-10  2.0000E-10  1.0000E-10  1.0000E-10  2.0000E-10  5.0000E-10  8.0000E-10
  11    0.000      1.0000E-10  1.0000E-10  1.0000E-10  1.0000E-10  1.0000E-10  1.0000E-10  2.0000E-10  5.0000E-10   0.000    
  12   1.0000E-10  1.0000E-10  1.0000E-10  1.0000E-10  1.0000E-10  1.0000E-10  1.0000E-10  1.0000E-10  2.0000E-10   0.000    
  13   1.0000E-10  1.0000E-10  2.0000E-10  2.0000E-10  2.0000E-10  2.0000E-10  2.0000E-10  1.0000E-10  1.0000E-10   0.000    
  14    0.000      2.0000E-10  5.0000E-10  5.0000E-10  5.0000E-10  5.0000E-10  5.0000E-10  2.0000E-10  1.0000E-10   0.000    
  15    0.000       0.000      8.0000E-10  8.0000E-10  8.0000E-10  8.0000E-10   0.000       0.000       0.000       0.000    

                  ET RATE =  1.000000E-08

      ET EXTINCTION DEPTH =   5.00000    

 EXTINCTION WATER CONTENT =  5.000000E-02

EXTINCTION WATER CONTENT FOR CELL AT ROW     1, COLUMN     1 IS LESS THAN RESIDUAL WATER CONTENT-- SETTING EXTINCTION WATER CONTENT EQUAL TO RESIDUAL WATER CONTENT

EXTINCTION WATER CONTENT FOR CELL AT ROW     1, COLUMN     2 IS LESS THAN RESIDUAL WATER CONTENT-- SETTING EXTINCTION WATER CONTENT EQUAL TO RESIDUAL WATER CONTENT

EXTINCTION WATER CONTENT FOR CELL AT ROW     2, COLUMN     1 IS LESS THAN RESIDUAL WATER CONTENT-- SETTING EXTINCTION WATER CONTENT EQUAL TO RESIDUAL WATER CONTENT

EXTINCTION WATER CONTENT FOR CELL AT ROW     2, COLUMN     2 IS LESS THAN RESIDUAL WATER CONTENT-- SETTING EXTINCTION WATER CONTENT EQUAL TO RESIDUAL WATER CONTENT

EXTINCTION WATER CONTENT FOR CELL AT ROW     2, COLUMN     3 IS LESS THAN RESIDUAL WATER CONTENT-- SETTING EXTINCTION WATER CONTENT EQUAL TO RESIDUAL WATER CONTENT

EXTINCTION WATER CONTENT FOR CELL AT ROW     2, COLUMN     6 IS LESS THAN RESIDUAL WATER CONTENT-- SETTING EXTINCTION WATER CONTENT EQUAL TO RESIDUAL WATER CONTENT

EXTINCTION WATER CONTENT FOR CELL AT ROW     2, COLUMN     7 IS LESS THAN RESIDUAL WATER CONTENT-- SETTING EXTINCTION WATER CONTENT EQUAL TO RESIDUAL WATER CONTENT

EXTINCTION WATER CONTENT FOR CELL AT ROW     2, COLUMN     8 IS LESS THAN RESIDUAL WATER CONTENT-- SETTING EXTINCTION WATER CONTENT EQUAL TO RESIDUAL WATER CONTENT

EXTINCTION WATER CONTENT FOR CELL AT ROW     3, COLUMN     2 IS LESS THAN RESIDUAL WATER CONTENT-- SETTING EXTINCTION WATER CONTENT EQUAL TO RESIDUAL WATER CONTENT

EXTINCTION WATER CONTENT FOR CELL AT ROW     3, COLUMN     3 IS LESS THAN RESIDUAL WATER CONTENT-- SETTING EXTINCTION WATER CONTENT EQUAL TO RESIDUAL WATER CONTENT

EXTINCTION WATER CONTENT FOR CELL AT ROW     3, COLUMN     4 IS LESS THAN RESIDUAL WATER CONTENT-- SETTING EXTINCTION WATER CONTENT EQUAL TO RESIDUAL WATER CONTENT

EXTINCTION WATER CONTENT FOR CELL AT ROW     3, COLUMN     5 IS LESS THAN RESIDUAL WATER CONTENT-- SETTING EXTINCTION WATER CONTENT EQUAL TO RESIDUAL WATER CONTENT

EXTINCTION WATER CONTENT FOR CELL AT ROW     3, COLUMN     6 IS LESS THAN RESIDUAL WATER CONTENT-- SETTING EXTINCTION WATER CONTENT EQUAL TO RESIDUAL WATER CONTENT

EXTINCTION WATER CONTENT FOR CELL AT ROW     3, COLUMN     7 IS LESS THAN RESIDUAL WATER CONTENT-- SETTING EXTINCTION WATER CONTENT EQUAL TO RESIDUAL WATER CONTENT

EXTINCTION WATER CONTENT FOR CELL AT ROW     3, COLUMN     8 IS LESS THAN RESIDUAL WATER CONTENT-- SETTING EXTINCTION WATER CONTENT EQUAL TO RESIDUAL WATER CONTENT

EXTINCTION WATER CONTENT FOR CELL AT ROW     4, COLUMN     1 IS LESS THAN RESIDUAL WATER CONTENT-- SETTING EXTINCTION WATER CONTENT EQUAL TO RESIDUAL WATER CONTENT

EXTINCTION WATER CONTENT FOR CELL AT ROW     4, COLUMN     2 IS LESS THAN RESIDUAL WATER CONTENT-- SETTING EXTINCTION WATER CONTENT EQUAL TO RESIDUAL WATER CONTENT

EXTINCTION WATER CONTENT FOR CELL AT ROW     4, COLUMN     3 IS LESS THAN RESIDUAL WATER CONTENT-- SETTING EXTINCTION WATER CONTENT EQUAL TO RESIDUAL WATER CONTENT

EXTINCTION WATER CONTENT FOR CELL AT ROW     4, COLUMN     4 IS LESS THAN RESIDUAL WATER CONTENT-- SETTING EXTINCTION WATER CONTENT EQUAL TO RESIDUAL WATER CONTENT

EXTINCTION WATER CONTENT FOR CELL AT ROW     4, COLUMN     5 IS LESS THAN RESIDUAL WATER CONTENT-- SETTING EXTINCTION WATER CONTENT EQUAL TO RESIDUAL WATER CONTENT

EXTINCTION WATER CONTENT FOR CELL AT ROW     4, COLUMN     6 IS LESS THAN RESIDUAL WATER CONTENT-- SETTING EXTINCTION WATER CONTENT EQUAL TO RESIDUAL WATER CONTENT

EXTINCTION WATER CONTENT FOR CELL AT ROW     4, COLUMN     7 IS LESS THAN RESIDUAL WATER CONTENT-- SETTING EXTINCTION WATER CONTENT EQUAL TO RESIDUAL WATER CONTENT

EXTINCTION WATER CONTENT FOR CELL AT ROW     4, COLUMN     8 IS LESS THAN RESIDUAL WATER CONTENT-- SETTING EXTINCTION WATER CONTENT EQUAL TO RESIDUAL WATER CONTENT

EXTINCTION WATER CONTENT FOR CELL AT ROW     4, COLUMN     9 IS LESS THAN RESIDUAL WATER CONTENT-- SETTING EXTINCTION WATER CONTENT EQUAL TO RESIDUAL WATER CONTENT

EXTINCTION WATER CONTENT FOR CELL AT ROW     5, COLUMN     1 IS LESS THAN RESIDUAL WATER CONTENT-- SETTING EXTINCTION WATER CONTENT EQUAL TO RESIDUAL WATER CONTENT

EXTINCTION WATER CONTENT FOR CELL AT ROW     5, COLUMN     2 IS LESS THAN RESIDUAL WATER CONTENT-- SETTING EXTINCTION WATER CONTENT EQUAL TO RESIDUAL WATER CONTENT

EXTINCTION WATER CONTENT FOR CELL AT ROW     5, COLUMN     3 IS LESS THAN RESIDUAL WATER CONTENT-- SETTING EXTINCTION WATER CONTENT EQUAL TO RESIDUAL WATER CONTENT

EXTINCTION WATER CONTENT FOR CELL AT ROW     5, COLUMN     4 IS LESS THAN RESIDUAL WATER CONTENT-- SETTING EXTINCTION WATER CONTENT EQUAL TO RESIDUAL WATER CONTENT

EXTINCTION WATER CONTENT FOR CELL AT ROW     5, COLUMN     5 IS LESS THAN RESIDUAL WATER CONTENT-- SETTING EXTINCTION WATER CONTENT EQUAL TO RESIDUAL WATER CONTENT

EXTINCTION WATER CONTENT FOR CELL AT ROW     5, COLUMN     6 IS LESS THAN RESIDUAL WATER CONTENT-- SETTING EXTINCTION WATER CONTENT EQUAL TO RESIDUAL WATER CONTENT

EXTINCTION WATER CONTENT FOR CELL AT ROW     5, COLUMN     7 IS LESS THAN RESIDUAL WATER CONTENT-- SETTING EXTINCTION WATER CONTENT EQUAL TO RESIDUAL WATER CONTENT

EXTINCTION WATER CONTENT FOR CELL AT ROW     5, COLUMN     8 IS LESS THAN RESIDUAL WATER CONTENT-- SETTING EXTINCTION WATER CONTENT EQUAL TO RESIDUAL WATER CONTENT

EXTINCTION WATER CONTENT FOR CELL AT ROW     5, COLUMN     9 IS LESS THAN RESIDUAL WATER CONTENT-- SETTING EXTINCTION WATER CONTENT EQUAL TO RESIDUAL WATER CONTENT

EXTINCTION WATER CONTENT FOR CELL AT ROW     5, COLUMN    10 IS LESS THAN RESIDUAL WATER CONTENT-- SETTING EXTINCTION WATER CONTENT EQUAL TO RESIDUAL WATER CONTENT

EXTINCTION WATER CONTENT FOR CELL AT ROW     6, COLUMN     1 IS LESS THAN RESIDUAL WATER CONTENT-- SETTING EXTINCTION WATER CONTENT EQUAL TO RESIDUAL WATER CONTENT

EXTINCTION WATER CONTENT FOR CELL AT ROW     6, COLUMN     2 IS LESS THAN RESIDUAL WATER CONTENT-- SETTING EXTINCTION WATER CONTENT EQUAL TO RESIDUAL WATER CONTENT

EXTINCTION WATER CONTENT FOR CELL AT ROW     6, COLUMN     3 IS LESS THAN RESIDUAL WATER CONTENT-- SETTING EXTINCTION WATER CONTENT EQUAL TO RESIDUAL WATER CONTENT

EXTINCTION WATER CONTENT FOR CELL AT ROW     6, COLUMN     4 IS LESS THAN RESIDUAL WATER CONTENT-- SETTING EXTINCTION WATER CONTENT EQUAL TO RESIDUAL WATER CONTENT

EXTINCTION WATER CONTENT FOR CELL AT ROW     6, COLUMN     5 IS LESS THAN RESIDUAL WATER CONTENT-- SETTING EXTINCTION WATER CONTENT EQUAL TO RESIDUAL WATER CONTENT

EXTINCTION WATER CONTENT FOR CELL AT ROW     6, COLUMN     6 IS LESS THAN RESIDUAL WATER CONTENT-- SETTING EXTINCTION WATER CONTENT EQUAL TO RESIDUAL WATER CONTENT

EXTINCTION WATER CONTENT FOR CELL AT ROW     6, COLUMN     7 IS LESS THAN RESIDUAL WATER CONTENT-- SETTING EXTINCTION WATER CONTENT EQUAL TO RESIDUAL WATER CONTENT

EXTINCTION WATER CONTENT FOR CELL AT ROW     6, COLUMN     8 IS LESS THAN RESIDUAL WATER CONTENT-- SETTING EXTINCTION WATER CONTENT EQUAL TO RESIDUAL WATER CONTENT

EXTINCTION WATER CONTENT FOR CELL AT ROW     6, COLUMN     9 IS LESS THAN RESIDUAL WATER CONTENT-- SETTING EXTINCTION WATER CONTENT EQUAL TO RESIDUAL WATER CONTENT

EXTINCTION WATER CONTENT FOR CELL AT ROW     6, COLUMN    10 IS LESS THAN RESIDUAL WATER CONTENT-- SETTING EXTINCTION WATER CONTENT EQUAL TO RESIDUAL WATER CONTENT

EXTINCTION WATER CONTENT FOR CELL AT ROW     7, COLUMN     1 IS LESS THAN RESIDUAL WATER CONTENT-- SETTING EXTINCTION WATER CONTENT EQUAL TO RESIDUAL WATER CONTENT

EXTINCTION WATER CONTENT FOR CELL AT ROW     7, COLUMN     2 IS LESS THAN RESIDUAL WATER CONTENT-- SETTING EXTINCTION WATER CONTENT EQUAL TO RESIDUAL WATER CONTENT

EXTINCTION WATER CONTENT FOR CELL AT ROW     7, COLUMN     3 IS LESS THAN RESIDUAL WATER CONTENT-- SETTING EXTINCTION WATER CONTENT EQUAL TO RESIDUAL WATER CONTENT

EXTINCTION WATER CONTENT FOR CELL AT ROW     7, COLUMN     4 IS LESS THAN RESIDUAL WATER CONTENT-- SETTING EXTINCTION WATER CONTENT EQUAL TO RESIDUAL WATER CONTENT

EXTINCTION WATER CONTENT FOR CELL AT ROW     7, COLUMN     5 IS LESS THAN RESIDUAL WATER CONTENT-- SETTING EXTINCTION WATER CONTENT EQUAL TO RESIDUAL WATER CONTENT

EXTINCTION WATER CONTENT FOR CELL AT ROW     7, COLUMN     6 IS LESS THAN RESIDUAL WATER CONTENT-- SETTING EXTINCTION WATER CONTENT EQUAL TO RESIDUAL WATER CONTENT

EXTINCTION WATER CONTENT FOR CELL AT ROW     7, COLUMN     7 IS LESS THAN RESIDUAL WATER CONTENT-- SETTING EXTINCTION WATER CONTENT EQUAL TO RESIDUAL WATER CONTENT

EXTINCTION WATER CONTENT FOR CELL AT ROW     7, COLUMN     8 IS LESS THAN RESIDUAL WATER CONTENT-- SETTING EXTINCTION WATER CONTENT EQUAL TO RESIDUAL WATER CONTENT

EXTINCTION WATER CONTENT FOR CELL AT ROW     7, COLUMN     9 IS LESS THAN RESIDUAL WATER CONTENT-- SETTING EXTINCTION WATER CONTENT EQUAL TO RESIDUAL WATER CONTENT

EXTINCTION WATER CONTENT FOR CELL AT ROW     8, COLUMN     2 IS LESS THAN RESIDUAL WATER CONTENT-- SETTING EXTINCTION WATER CONTENT EQUAL TO RESIDUAL WATER CONTENT

EXTINCTION WATER CONTENT FOR CELL AT ROW     8, COLUMN     3 IS LESS THAN RESIDUAL WATER CONTENT-- SETTING EXTINCTION WATER CONTENT EQUAL TO RESIDUAL WATER CONTENT

EXTINCTION WATER CONTENT FOR CELL AT ROW     8, COLUMN     4 IS LESS THAN RESIDUAL WATER CONTENT-- SETTING EXTINCTION WATER CONTENT EQUAL TO RESIDUAL WATER CONTENT

EXTINCTION WATER CONTENT FOR CELL AT ROW     8, COLUMN     5 IS LESS THAN RESIDUAL WATER CONTENT-- SETTING EXTINCTION WATER CONTENT EQUAL TO RESIDUAL WATER CONTENT

EXTINCTION WATER CONTENT FOR CELL AT ROW     8, COLUMN     6 IS LESS THAN RESIDUAL WATER CONTENT-- SETTING EXTINCTION WATER CONTENT EQUAL TO RESIDUAL WATER CONTENT

EXTINCTION WATER CONTENT FOR CELL AT ROW     8, COLUMN     7 IS LESS THAN RESIDUAL WATER CONTENT-- SETTING EXTINCTION WATER CONTENT EQUAL TO RESIDUAL WATER CONTENT

EXTINCTION WATER CONTENT FOR CELL AT ROW     8, COLUMN     8 IS LESS THAN RESIDUAL WATER CONTENT-- SETTING EXTINCTION WATER CONTENT EQUAL TO RESIDUAL WATER CONTENT

EXTINCTION WATER CONTENT FOR CELL AT ROW     8, COLUMN     9 IS LESS THAN RESIDUAL WATER CONTENT-- SETTING EXTINCTION WATER CONTENT EQUAL TO RESIDUAL WATER CONTENT

EXTINCTION WATER CONTENT FOR CELL AT ROW     9, COLUMN     2 IS LESS THAN RESIDUAL WATER CONTENT-- SETTING EXTINCTION WATER CONTENT EQUAL TO RESIDUAL WATER CONTENT

EXTINCTION WATER CONTENT FOR CELL AT ROW     9, COLUMN     3 IS LESS THAN RESIDUAL WATER CONTENT-- SETTING EXTINCTION WATER CONTENT EQUAL TO RESIDUAL WATER CONTENT

EXTINCTION WATER CONTENT FOR CELL AT ROW     9, COLUMN     4 IS LESS THAN RESIDUAL WATER CONTENT-- SETTING EXTINCTION WATER CONTENT EQUAL TO RESIDUAL WATER CONTENT

EXTINCTION WATER CONTENT FOR CELL AT ROW     9, COLUMN     5 IS LESS THAN RESIDUAL WATER CONTENT-- SETTING EXTINCTION WATER CONTENT EQUAL TO RESIDUAL WATER CONTENT

EXTINCTION WATER CONTENT FOR CELL AT ROW     9, COLUMN     6 IS LESS THAN RESIDUAL WATER CONTENT-- SETTING EXTINCTION WATER CONTENT EQUAL TO RESIDUAL WATER CONTENT

EXTINCTION WATER CONTENT FOR CELL AT ROW     9, COLUMN     7 IS LESS THAN RESIDUAL WATER CONTENT-- SETTING EXTINCTION WATER CONTENT EQUAL TO RESIDUAL WATER CONTENT

EXTINCTION WATER CONTENT FOR CELL AT ROW     9, COLUMN     8 IS LESS THAN RESIDUAL WATER CONTENT-- SETTING EXTINCTION WATER CONTENT EQUAL TO RESIDUAL WATER CONTENT

EXTINCTION WATER CONTENT FOR CELL AT ROW     9, COLUMN     9 IS LESS THAN RESIDUAL WATER CONTENT-- SETTING EXTINCTION WATER CONTENT EQUAL TO RESIDUAL WATER CONTENT

EXTINCTION WATER CONTENT FOR CELL AT ROW    10, COLUMN     2 IS LESS THAN RESIDUAL WATER CONTENT-- SETTING EXTINCTION WATER CONTENT EQUAL TO RESIDUAL WATER CONTENT

EXTINCTION WATER CONTENT FOR CELL AT ROW    10, COLUMN     3 IS LESS THAN RESIDUAL WATER CONTENT-- SETTING EXTINCTION WATER CONTENT EQUAL TO RESIDUAL WATER CONTENT

EXTINCTION WATER CONTENT FOR CELL AT ROW    10, COLUMN     4 IS LESS THAN RESIDUAL WATER CONTENT-- SETTING EXTINCTION WATER CONTENT EQUAL TO RESIDUAL WATER CONTENT

EXTINCTION WATER CONTENT FOR CELL AT ROW    10, COLUMN     5 IS LESS THAN RESIDUAL WATER CONTENT-- SETTING EXTINCTION WATER CONTENT EQUAL TO RESIDUAL WATER CONTENT

EXTINCTION WATER CONTENT FOR CELL AT ROW    10, COLUMN     6 IS LESS THAN RESIDUAL WATER CONTENT-- SETTING EXTINCTION WATER CONTENT EQUAL TO RESIDUAL WATER CONTENT

EXTINCTION WATER CONTENT FOR CELL AT ROW    10, COLUMN     7 IS LESS THAN RESIDUAL WATER CONTENT-- SETTING EXTINCTION WATER CONTENT EQUAL TO RESIDUAL WATER CONTENT

EXTINCTION WATER CONTENT FOR CELL AT ROW    10, COLUMN     8 IS LESS THAN RESIDUAL WATER CONTENT-- SETTING EXTINCTION WATER CONTENT EQUAL TO RESIDUAL WATER CONTENT

EXTINCTION WATER CONTENT FOR CELL AT ROW    10, COLUMN     9 IS LESS THAN RESIDUAL WATER CONTENT-- SETTING EXTINCTION WATER CONTENT EQUAL TO RESIDUAL WATER CONTENT

EXTINCTION WATER CONTENT FOR CELL AT ROW    10, COLUMN    10 IS LESS THAN RESIDUAL WATER CONTENT-- SETTING EXTINCTION WATER CONTENT EQUAL TO RESIDUAL WATER CONTENT

EXTINCTION WATER CONTENT FOR CELL AT ROW    11, COLUMN     2 IS LESS THAN RESIDUAL WATER CONTENT-- SETTING EXTINCTION WATER CONTENT EQUAL TO RESIDUAL WATER CONTENT

EXTINCTION WATER CONTENT FOR CELL AT ROW    11, COLUMN     3 IS LESS THAN RESIDUAL WATER CONTENT-- SETTING EXTINCTION WATER CONTENT EQUAL TO RESIDUAL WATER CONTENT

EXTINCTION WATER CONTENT FOR CELL AT ROW    11, COLUMN     4 IS LESS THAN RESIDUAL WATER CONTENT-- SETTING EXTINCTION WATER CONTENT EQUAL TO RESIDUAL WATER CONTENT

EXTINCTION WATER CONTENT FOR CELL AT ROW    11, COLUMN     5 IS LESS THAN RESIDUAL WATER CONTENT-- SETTING EXTINCTION WATER CONTENT EQUAL TO RESIDUAL WATER CONTENT

EXTINCTION WATER CONTENT FOR CELL AT ROW    11, COLUMN     6 IS LESS THAN RESIDUAL WATER CONTENT-- SETTING EXTINCTION WATER CONTENT EQUAL TO RESIDUAL WATER CONTENT

EXTINCTION WATER CONTENT FOR CELL AT ROW    11, COLUMN     7 IS LESS THAN RESIDUAL WATER CONTENT-- SETTING EXTINCTION WATER CONTENT EQUAL TO RESIDUAL WATER CONTENT

EXTINCTION WATER CONTENT FOR CELL AT ROW    11, COLUMN     8 IS LESS THAN RESIDUAL WATER CONTENT-- SETTING EXTINCTION WATER CONTENT EQUAL TO RESIDUAL WATER CONTENT

EXTINCTION WATER CONTENT FOR CELL AT ROW    11, COLUMN     9 IS LESS THAN RESIDUAL WATER CONTENT-- SETTING EXTINCTION WATER CONTENT EQUAL TO RESIDUAL WATER CONTENT

EXTINCTION WATER CONTENT FOR CELL AT ROW    12, COLUMN     1 IS LESS THAN RESIDUAL WATER CONTENT-- SETTING EXTINCTION WATER CONTENT EQUAL TO RESIDUAL WATER CONTENT

EXTINCTION WATER CONTENT FOR CELL AT ROW    12, COLUMN     2 IS LESS THAN RESIDUAL WATER CONTENT-- SETTING EXTINCTION WATER CONTENT EQUAL TO RESIDUAL WATER CONTENT

EXTINCTION WATER CONTENT FOR CELL AT ROW    12, COLUMN     3 IS LESS THAN RESIDUAL WATER CONTENT-- SETTING EXTINCTION WATER CONTENT EQUAL TO RESIDUAL WATER CONTENT

EXTINCTION WATER CONTENT FOR CELL AT ROW    12, COLUMN     4 IS LESS THAN RESIDUAL WATER CONTENT-- SETTING EXTINCTION WATER CONTENT EQUAL TO RESIDUAL WATER CONTENT

EXTINCTION WATER CONTENT FOR CELL AT ROW    12, COLUMN     5 IS LESS THAN RESIDUAL WATER CONTENT-- SETTING EXTINCTION WATER CONTENT EQUAL TO RESIDUAL WATER CONTENT

EXTINCTION WATER CONTENT FOR CELL AT ROW    12, COLUMN     6 IS LESS THAN RESIDUAL WATER CONTENT-- SETTING EXTINCTION WATER CONTENT EQUAL TO RESIDUAL WATER CONTENT

EXTINCTION WATER CONTENT FOR CELL AT ROW    12, COLUMN     7 IS LESS THAN RESIDUAL WATER CONTENT-- SETTING EXTINCTION WATER CONTENT EQUAL TO RESIDUAL WATER CONTENT

EXTINCTION WATER CONTENT FOR CELL AT ROW    12, COLUMN     8 IS LESS THAN RESIDUAL WATER CONTENT-- SETTING EXTINCTION WATER CONTENT EQUAL TO RESIDUAL WATER CONTENT

EXTINCTION WATER CONTENT FOR CELL AT ROW    12, COLUMN     9 IS LESS THAN RESIDUAL WATER CONTENT-- SETTING EXTINCTION WATER CONTENT EQUAL TO RESIDUAL WATER CONTENT

EXTINCTION WATER CONTENT FOR CELL AT ROW    13, COLUMN     1 IS LESS THAN RESIDUAL WATER CONTENT-- SETTING EXTINCTION WATER CONTENT EQUAL TO RESIDUAL WATER CONTENT

EXTINCTION WATER CONTENT FOR CELL AT ROW    13, COLUMN     2 IS LESS THAN RESIDUAL WATER CONTENT-- SETTING EXTINCTION WATER CONTENT EQUAL TO RESIDUAL WATER CONTENT

EXTINCTION WATER CONTENT FOR CELL AT ROW    13, COLUMN     3 IS LESS THAN RESIDUAL WATER CONTENT-- SETTING EXTINCTION WATER CONTENT EQUAL TO RESIDUAL WATER CONTENT

EXTINCTION WATER CONTENT FOR CELL AT ROW    13, COLUMN     4 IS LESS THAN RESIDUAL WATER CONTENT-- SETTING EXTINCTION WATER CONTENT EQUAL TO RESIDUAL WATER CONTENT

EXTINCTION WATER CONTENT FOR CELL AT ROW    13, COLUMN     5 IS LESS THAN RESIDUAL WATER CONTENT-- SETTING EXTINCTION WATER CONTENT EQUAL TO RESIDUAL WATER CONTENT

EXTINCTION WATER CONTENT FOR CELL AT ROW    13, COLUMN     6 IS LESS THAN RESIDUAL WATER CONTENT-- SETTING EXTINCTION WATER CONTENT EQUAL TO RESIDUAL WATER CONTENT

EXTINCTION WATER CONTENT FOR CELL AT ROW    13, COLUMN     7 IS LESS THAN RESIDUAL WATER CONTENT-- SETTING EXTINCTION WATER CONTENT EQUAL TO RESIDUAL WATER CONTENT

EXTINCTION WATER CONTENT FOR CELL AT ROW    13, COLUMN     8 IS LESS THAN RESIDUAL WATER CONTENT-- SETTING EXTINCTION WATER CONTENT EQUAL TO RESIDUAL WATER CONTENT

EXTINCTION WATER CONTENT FOR CELL AT ROW    13, COLUMN     9 IS LESS THAN RESIDUAL WATER CONTENT-- SETTING EXTINCTION WATER CONTENT EQUAL TO RESIDUAL WATER CONTENT

EXTINCTION WATER CONTENT FOR CELL AT ROW    14, COLUMN     2 IS LESS THAN RESIDUAL WATER CONTENT-- SETTING EXTINCTION WATER CONTENT EQUAL TO RESIDUAL WATER CONTENT

EXTINCTION WATER CONTENT FOR CELL AT ROW    14, COLUMN     3 IS LESS THAN RESIDUAL WATER CONTENT-- SETTING EXTINCTION WATER CONTENT EQUAL TO RESIDUAL WATER CONTENT

EXTINCTION WATER CONTENT FOR CELL AT ROW    14, COLUMN     4 IS LESS THAN RESIDUAL WATER CONTENT-- SETTING EXTINCTION WATER CONTENT EQUAL TO RESIDUAL WATER CONTENT

EXTINCTION WATER CONTENT FOR CELL AT ROW    14, COLUMN     5 IS LESS THAN RESIDUAL WATER CONTENT-- SETTING EXTINCTION WATER CONTENT EQUAL TO RESIDUAL WATER CONTENT

EXTINCTION WATER CONTENT FOR CELL AT ROW    14, COLUMN     6 IS LESS THAN RESIDUAL WATER CONTENT-- SETTING EXTINCTION WATER CONTENT EQUAL TO RESIDUAL WATER CONTENT

EXTINCTION WATER CONTENT FOR CELL AT ROW    14, COLUMN     7 IS LESS THAN RESIDUAL WATER CONTENT-- SETTING EXTINCTION WATER CONTENT EQUAL TO RESIDUAL WATER CONTENT

EXTINCTION WATER CONTENT FOR CELL AT ROW    14, COLUMN     8 IS LESS THAN RESIDUAL WATER CONTENT-- SETTING EXTINCTION WATER CONTENT EQUAL TO RESIDUAL WATER CONTENT

EXTINCTION WATER CONTENT FOR CELL AT ROW    14, COLUMN     9 IS LESS THAN RESIDUAL WATER CONTENT-- SETTING EXTINCTION WATER CONTENT EQUAL TO RESIDUAL WATER CONTENT

EXTINCTION WATER CONTENT FOR CELL AT ROW    15, COLUMN     3 IS LESS THAN RESIDUAL WATER CONTENT-- SETTING EXTINCTION WATER CONTENT EQUAL TO RESIDUAL WATER CONTENT

EXTINCTION WATER CONTENT FOR CELL AT ROW    15, COLUMN     4 IS LESS THAN RESIDUAL WATER CONTENT-- SETTING EXTINCTION WATER CONTENT EQUAL TO RESIDUAL WATER CONTENT

EXTINCTION WATER CONTENT FOR CELL AT ROW    15, COLUMN     5 IS LESS THAN RESIDUAL WATER CONTENT-- SETTING EXTINCTION WATER CONTENT EQUAL TO RESIDUAL WATER CONTENT

EXTINCTION WATER CONTENT FOR CELL AT ROW    15, COLUMN     6 IS LESS THAN RESIDUAL WATER CONTENT-- SETTING EXTINCTION WATER CONTENT EQUAL TO RESIDUAL WATER CONTENT

 PROCESSING WELL LIST

 FINISHED READING WELL LIST

      6 WELLS

 PROCESSING AGO STRESS PERIOD DATA

 READING AGO STRESS PERIOD DATA

 READING IRRIGATION STREAM

 READING IRRIGATION WELL

 READING SUPPLEMENTAL WEL

 END PROCESSING AGO STRESS PERIOD DATA OPTIONS
 
 SOLVING FOR HEAD 
                                                   Max.-Head-Change                         Max.-Flux-Residual
  Residual-Control   Outer-Iter.   Inner-Iter.     Column Row Layer    Maximum-Head-Change  Column Row Layer    Maximum-Flux-Residual          L2-NORM 
          0                 1           4             2    2     1      -0.2853230307E+02       3    3    1        -0.3357742619E+01      0.9178868793E+01
          0                 2           4             1    1     1      -0.3090998848E+02       1   13    1        -0.1310377163E+02      0.1415280893E+02
          0                 3           4             5    3     1       0.1200989268E+01       1   13    1        -0.9001331137E+00      0.1274776908E+01
          0                 4           4             5    3     1      -0.1119870875E+00       1   13    1         0.6440628849E-01      0.9892159308E-01
          0                 5           3             5    3     1       0.9052819301E-02       1   13    1        -0.4316256084E-02      0.7708235598E-02
          0                 6           2             5    3     1      -0.6336338534E-03       7   13    1        -0.3261956253E-03      0.5586610067E-03
          0                 7           1             1    1     1      -0.3733411403E-04       7   13    1         0.2436632485E-04      0.3639558775E-04
          0                 8           1             1    1     1       0.3004228440E-05       7   13    1        -0.1136806986E-05      0.1873785131E-05

    ------------------------------------------------
       NWT REQUIRED            8 OUTER ITERATIONS 
       AND A TOTAL OF         23 INNER ITERATIONS.
    ------------------------------------------------

 OUTPUT CONTROL FOR STRESS PERIOD    1   TIME STEP    1
    PRINT BUDGET
    SAVE BUDGET
 UBUDSV SAVING "   CONSTANT HEAD" ON UNIT102 AT TIME STEP     1, STRESS PERIOD    1
 UBUDSV SAVING "FLOW RIGHT FACE " ON UNIT102 AT TIME STEP     1, STRESS PERIOD    1
 UBUDSV SAVING "FLOW FRONT FACE " ON UNIT102 AT TIME STEP     1, STRESS PERIOD    1

  HEAD DEP BOUNDS   PERIOD    1   STEP     1
 BOUNDARY      1   LAYER   1   ROW    13   COL     1   RATE   -0.283398    
 BOUNDARY      2   LAYER   1   ROW    14   COL     9   RATE    0.285957    



 STREAM LISTING     PERIOD      1   STEP        1

 LAYER ROW COL. STREAM  RCH.  FLOW INTO     FLOW TO   FLOW OUT OF   OVRLND.     DIRECT     STREAM       STREAM     STREAM     STREAM   STREAMBED  STREAMBED
                SEG.NO.  NO.  STRM. RCH.    AQUIFER    STRM. RCH.    RUNOFF     PRECIP       ET          HEAD       DEPTH      WIDTH   CONDCTNC.   GRADIENT

   1    1    1     1     1    4.0000E+00  8.7855E-02   3.9121E+00  0.000E+00  0.000E+00  0.000E+00  1.09374E+03  6.973E-01  5.280E+00  2.376E-02  1.232E+00
   1    2    2     1     2    3.9121E+00  1.3511E-01   3.7770E+00  0.000E+00  0.000E+00  0.000E+00  1.08875E+03  6.904E-01  5.230E+00  3.661E-02  1.230E+00
   1    3    3     1     3    3.7770E+00  1.1429E-01   3.6628E+00  0.000E+00  0.000E+00  0.000E+00  1.08310E+03  6.825E-01  5.172E+00  3.103E-02  1.228E+00
   1    3    4     1     4    3.6628E+00  1.0446E-01   3.5583E+00  0.000E+00  0.000E+00  0.000E+00  1.07808E+03  6.755E-01  5.121E+00  2.842E-02  1.225E+00
   1    4    5     2     1    1.5583E+00  2.5094E-01   1.3074E+00  0.000E+00  0.000E+00  0.000E+00  1.07215E+03  2.172E-01  1.200E+01  7.800E-02  1.072E+00
   1    5    6     2     2    1.3074E+00  1.9178E-01   1.1156E+00  0.000E+00  0.000E+00  0.000E+00  1.06671E+03  1.964E-01  1.200E+01  6.000E-02  1.065E+00
   1    6    6     2     3    1.1156E+00  1.9063E-01   9.2494E-01  0.000E+00  0.000E+00  0.000E+00  1.06197E+03  1.772E-01  1.200E+01  6.000E-02  1.059E+00
   1    7    6     2     4    9.2494E-01  1.8939E-01   7.3554E-01  0.000E+00  0.000E+00  0.000E+00  1.05723E+03  1.566E-01  1.200E+01  6.000E-02  1.052E+00
   1    8    6     2     5    7.3554E-01  1.8805E-01   5.4750E-01  0.000E+00  0.000E+00  0.000E+00  1.05249E+03  1.341E-01  1.200E+01  6.000E-02  1.045E+00
   1    3    5     3     1    2.0000E+00  2.8252E-01   1.7175E+00  0.000E+00  0.000E+00  0.000E+00  1.07555E+03  1.909E+00  9.636E+00  7.227E-02  1.955E+00
   1    3    6     3     2    1.7175E+00  2.4905E-01   1.4684E+00  0.000E+00  0.000E+00  0.000E+00  1.07264E+03  1.727E+00  8.909E+00  6.682E-02  1.864E+00
   1    3    7     3     3    1.4684E+00  1.9718E-01   1.2712E+00  0.000E+00  0.000E+00  0.000E+00  1.06987E+03  1.555E+00  8.218E+00  5.547E-02  1.777E+00
   1    4    8     3     4    1.2712E+00  2.2567E-01   1.0456E+00  0.000E+00  0.000E+00  0.000E+00  1.06682E+03  1.364E+00  7.455E+00  6.709E-02  1.682E+00
   1    5    8     3     5    1.0456E+00  1.5790E-01   8.8768E-01  0.000E+00  0.000E+00  0.000E+00  1.06362E+03  1.164E+00  6.655E+00  4.991E-02  1.582E+00
   1    6    8     3     6    8.8768E-01  5.5980E-02   8.3170E-01  0.000E+00  0.000E+00  0.000E+00  1.06158E+03  1.036E+00  6.145E+00  1.844E-02  1.518E+00
   1    5   10     4     1    1.0000E+01  9.0919E-02   9.9091E+00  0.000E+00  0.000E+00  0.000E+00  1.07836E+03  6.368E-01  1.000E+01  2.500E-02  1.212E+00
   1    5    9     4     2    9.9091E+00  1.8158E-01   9.7275E+00  0.000E+00  0.000E+00  0.000E+00  1.07154E+03  6.315E-01  1.000E+01  5.000E-02  1.211E+00
   1    6    8     4     3    9.7275E+00  1.2689E-01   9.6006E+00  0.000E+00  0.000E+00  0.000E+00  1.06381E+03  6.256E-01  1.000E+01  3.500E-02  1.209E+00
   1    6    8     5     1    1.0432E+01  2.2686E-01   1.0205E+01  0.000E+00  0.000E+00  0.000E+00  1.05868E+03  6.790E-01  1.542E+01  6.166E-02  1.226E+00
   1    7    7     5     2    1.0205E+01  2.7894E-01   9.9265E+00  0.000E+00  0.000E+00  0.000E+00  1.05417E+03  6.732E-01  1.519E+01  7.594E-02  1.224E+00
   1    8    7     5     3    9.9265E+00  1.9221E-01   9.7343E+00  0.000E+00  0.000E+00  0.000E+00  1.04992E+03  6.676E-01  1.497E+01  5.241E-02  1.223E+00
   1    8    6     5     4    9.7343E+00  1.3577E-01   9.5985E+00  0.000E+00  0.000E+00  0.000E+00  1.04691E+03  6.637E-01  1.482E+01  3.706E-02  1.221E+00
   1    9    6     6     1    9.5985E+00  2.2097E-01   9.3776E+00  0.000E+00  0.000E+00  0.000E+00  1.04341E+03  6.828E-01  1.200E+01  6.000E-02  1.228E+00
   1   10    7     6     2    9.3776E+00  2.2039E-01   9.1572E+00  0.000E+00  0.000E+00  0.000E+00  1.03885E+03  6.732E-01  1.200E+01  6.000E-02  1.224E+00
   1   11    7     6     3    9.1572E+00  2.1981E-01   8.9374E+00  0.000E+00  0.000E+00  0.000E+00  1.03430E+03  6.636E-01  1.200E+01  6.000E-02  1.221E+00
   1   12    7     6     4    8.9374E+00  2.1923E-01   8.7181E+00  0.000E+00  0.000E+00  0.000E+00  1.02974E+03  6.539E-01  1.200E+01  6.000E-02  1.218E+00
   1   13    7     6     5    8.7181E+00 -8.5023E-02   8.8032E+00  0.000E+00  0.000E+00  0.000E+00  1.02656E+03  6.509E-01  1.200E+01  2.400E-01 -1.181E-01
   1   14    9     7     1    1.5000E+02  1.3387E+00   1.4866E+02  0.000E+00  0.000E+00  0.000E+00  1.03987E+03  2.288E+00  5.529E+01  5.593E-01  7.979E-01
   1   13    8     7     2    1.4866E+02  1.8591E+00   1.4680E+02  0.000E+00  0.000E+00  0.000E+00  1.03478E+03  2.279E+00  5.526E+01  6.148E-01  1.008E+00
   1   13    7     7     3    1.4680E+02  1.5498E+00   1.4525E+02  0.000E+00  0.000E+00  0.000E+00  1.02969E+03  2.270E+00  5.522E+01  5.584E-01  9.251E-01
   1   13    6     8     1    1.5406E+02  8.9780E-01   1.5316E+02  0.000E+00  0.000E+00  0.000E+00  1.02472E+03  2.842E+00  4.121E+01  4.199E-01  7.126E-01
   1   13    5     8     2    1.5316E+02  1.5691E-01   1.5300E+02  0.000E+00  0.000E+00  0.000E+00  1.01846E+03  2.838E+00  4.116E+01  4.194E-01  1.247E-01
   1   13    4     8     3    1.5300E+02 -2.4570E+00   1.5546E+02  0.000E+00  0.000E+00  0.000E+00  1.01222E+03  2.846E+00  4.127E+01  4.206E+00 -1.947E-01
   1   13    3     8     4    1.5546E+02 -3.5495E+00   1.5901E+02  0.000E+00  0.000E+00  0.000E+00  1.00599E+03  2.867E+00  4.157E+01  4.236E+00 -2.793E-01
   1   13    2     8     5    1.5901E+02 -2.3585E+00   1.6137E+02  0.000E+00  0.000E+00  0.000E+00  9.99762E+02  2.887E+00  4.186E+01  4.266E+00 -1.843E-01
   1   13    1     8     6    1.6137E+02 -1.7537E+00   1.6312E+02  0.000E+00  0.000E+00  0.000E+00  9.94776E+02  2.901E+00  4.206E+01  2.572E+00 -2.273E-01
   1    6    8     9     1    5.4750E-01  0.0000E+00   5.4750E-01  0.000E+00  0.000E+00  0.000E+00  1.07859E+03  9.431E-02  4.000E+00  0.000E+00  1.031E+00



 UBDSV3 SAVING "     NETRECHARGE" ON UNIT 100 AT TIME STEP     1, STRESS PERIOD   1
 UBDSV3 SAVING "    NETDISCHARGE" ON UNIT 101 AT TIME STEP     1, STRESS PERIOD   1
 UBDSV3 SAVING "           GW ET" ON UNIT  61 AT TIME STEP     1, STRESS PERIOD   1
 UBDSV3 SAVING "    UZF RECHARGE" ON UNIT  61 AT TIME STEP     1, STRESS PERIOD   1
 UBDSV3 SAVING " SURFACE LEAKAGE" ON UNIT  61 AT TIME STEP     1, STRESS PERIOD   1
 UBDSV3 SAVING "       HORT+DUNN" ON UNIT  61 AT TIME STEP     1, STRESS PERIOD   1
 UBDSV3 SAVING "  STORAGE CHANGE" ON UNIT  61 AT TIME STEP     1, STRESS PERIOD   1


UNSATURATED ZONE PACKAGE VOLUMETRIC BUDGET FOR  TIME STEP     1 STRESS PERIOD    1
  ------------------------------------------------------------------------------



     CUMULATIVE VOLUMES      L**3       RATES FOR THIS TIME STEP      L**3/T
     ------------------                 ------------------------

           IN:                                      IN:
           ---                                      ---
        INFILTRATION =      151805.6963          INFILTRATION =           1.7570

          OUT:                                     OUT:
          ----                                     ----
              UZF ET =       0.0000E+00                UZF ET =       0.0000E+00
        UZF RECHARGE =      151805.6963          UZF RECHARGE =           1.7570

            IN - OUT =       0.0000E+00              IN - OUT =       0.0000E+00

          STORAGE:                                 STORAGE:
          --------                                 --------
      STORAGE CHANGE =       0.0000E+00        STORAGE CHANGE =       0.0000E+00

 PERCENT DISCREPANCY IS DIFFERENCE BETWEEN IN-OUT MINUS CHANGE IN STORAGE
 DIVIDED BY THE AVERAGE OF IN AND OUT TIMES 100

 PERCENT DISCREPANCY =           0.00     PERCENT DISCREPANCY =           0.00






1
  VOLUMETRIC BUDGET FOR ENTIRE MODEL AT END OF TIME STEP    1, STRESS PERIOD   1
  ------------------------------------------------------------------------------

     CUMULATIVE VOLUMES      L**3       RATES FOR THIS TIME STEP      L**3/T
     ------------------                 ------------------------

           IN:                                      IN:
           ---                                      ---
             STORAGE     =           0.0000               STORAGE     =           0.0000
       CONSTANT HEAD     =           0.0000         CONSTANT HEAD     =           0.0000
               WELLS     =           0.0000                 WELLS     =           0.0000
     HEAD DEP BOUNDS     =       24706.6504       HEAD DEP BOUNDS     =           0.2860
      STREAM LEAKAGE     =      910370.5625        STREAM LEAKAGE     =          10.5367
        UZF RECHARGE     =      151805.8594          UZF RECHARGE     =           1.7570
               GW ET     =           0.0000                 GW ET     =           0.0000
     SURFACE LEAKAGE     =           0.0000       SURFACE LEAKAGE     =           0.0000
    SUPPLEMENTARY WELLS  =           0.0000      SUPPLEMENTARY WELLS  =           0.0000

                TOTAL IN =     1086883.0000                  TOTAL IN =          12.5797

          OUT:                                     OUT:
          ----                                     ----
             STORAGE     =           0.0000               STORAGE     =           0.0000
       CONSTANT HEAD     =           0.0000         CONSTANT HEAD     =           0.0000
               WELLS     =           0.0000                 WELLS     =           0.0000
     HEAD DEP BOUNDS     =       24485.5488       HEAD DEP BOUNDS     =           0.2834
      STREAM LEAKAGE     =      881610.5000        STREAM LEAKAGE     =          10.2038
        UZF RECHARGE     =           0.0000          UZF RECHARGE     =           0.0000
               GW ET     =      149509.6094                 GW ET     =           1.7304
     SURFACE LEAKAGE     =           0.0000       SURFACE LEAKAGE     =           0.0000
    SUPPLEMENTARY WELLS  =       31276.9668      SUPPLEMENTARY WELLS  =           0.3620

               TOTAL OUT =     1086882.6250                 TOTAL OUT =          12.5797

                IN - OUT =           0.3750                  IN - OUT =       4.7684E-06

     PERCENT DISCREPANCY =           0.00         PERCENT DISCREPANCY =           0.00






         TIME SUMMARY AT END OF TIME STEP    1 IN STRESS PERIOD    1
                    SECONDS     MINUTES      HOURS       DAYS        YEARS
                    -----------------------------------------------------------
   TIME STEP LENGTH  86400.      1440.0      24.000      1.0000     2.73785E-03
 STRESS PERIOD TIME  86400.      1440.0      24.000      1.0000     2.73785E-03
         TOTAL TIME  86400.      1440.0      24.000      1.0000     2.73785E-03
1
1
                            STRESS PERIOD NO.    2, LENGTH =   2628000.    
                            -----------------------------------------------

                              NUMBER OF TIME STEPS =    30

                               MULTIPLIER FOR DELT =     1.000

                            INITIAL TIME STEP SIZE =   87600.00    

 WELL NO.  LAYER   ROW   COL   STRESS RATE         
 --------------------------------------------------
      1      1      6      4       0.000    
      2      1      6      7       0.000    
      3      1      7      4       0.000    
      4      1      7      5       0.000    
      5      1      8      4       0.000    
      6      1      8      5       0.000    
      7      1      9      4       0.000    
      8      1      9      5       0.000    
      9      1     10      4       0.000    
     10      1     10      5       0.000    

     10 WELLS

 REUSING NON-PARAMETER GHB CELLS FROM LAST STRESS PERIOD

      2 GHB CELLS

 REUSING STREAM SEGMENT DATA FROM LAST STRESS PERIOD



            AREAL INFILTRATION RATE
 READING ON UNIT   19 WITH FORMAT: (10F4.0)            

            1           2           3           4           5           6           7           8           9          10
 ........................................................................................................................
   1    0.000       0.000       0.000       0.000       0.000       0.000       0.000       0.000       0.000       0.000    
   2    0.000       0.000       0.000       0.000       0.000       0.000       0.000       0.000       0.000       0.000    
   3    0.000       0.000       0.000       0.000       0.000       0.000       0.000       0.000       0.000       0.000    
   4    0.000       0.000       0.000       0.000       0.000       0.000       0.000       0.000       0.000       0.000    
   5    0.000       0.000       0.000       0.000       0.000       0.000       0.000       0.000       0.000       0.000    
   6    0.000       0.000       0.000       0.000       0.000       0.000       0.000       0.000       0.000       0.000    
   7    0.000       0.000       0.000       0.000       0.000       0.000       0.000       0.000       0.000       0.000    
   8    0.000       0.000       0.000       0.000       0.000       0.000       0.000       0.000       0.000       0.000    
   9    0.000       0.000       0.000       0.000       0.000       0.000       0.000       0.000       0.000       0.000    
  10    0.000       0.000       0.000       0.000       0.000       0.000       0.000       0.000       0.000       0.000    
  11    0.000       0.000       0.000       0.000       0.000       0.000       0.000       0.000       0.000       0.000    
  12    0.000       0.000       0.000       0.000       0.000       0.000       0.000       0.000       0.000       0.000    
  13    0.000       0.000       0.000       0.000       0.000       0.000       0.000       0.000       0.000       0.000    
  14    0.000       0.000       0.000       0.000       0.000       0.000       0.000       0.000       0.000       0.000    
  15    0.000       0.000       0.000       0.000       0.000       0.000       0.000       0.000       0.000       0.000    

                  ET RATE =  1.000000E-10

 USING ET EXTINCTION DEPTH FROM PREVIOUS STRESS PERIOD. CURRENT PERIOD IS:       2

 USING EXTINCTION WATER CONTENT FROM PREVIOUS STRESS PERIOD. CURRENT PERIOD IS:       2

 PROCESSING AGO STRESS PERIOD DATA

 READING AGO STRESS PERIOD DATA

 READING IRRIGATION STREAM

 READING IRRIGATION WELL

 READING SUPPLEMENTAL WEL

 END PROCESSING AGO STRESS PERIOD DATA OPTIONS
 
 SOLVING FOR HEAD 
                                                   Max.-Head-Change                         Max.-Flux-Residual
  Residual-Control   Outer-Iter.   Inner-Iter.     Column Row Layer    Maximum-Head-Change  Column Row Layer    Maximum-Flux-Residual          L2-NORM 
          0                 1           2             6   13     1       0.7465331895E-02       2   13    1         0.3967033525E+00      0.1778031255E+01
          0                 2           2             1   12     1       0.2537547276E-02       2   13    1         0.7542951222E-01      0.5401590742E+00
          0                 3           2             1   12     1       0.1137843380E-02       1   12    1         0.2961097695E-01      0.2170977857E+00
          0                 4           2             2   11     1       0.5103812705E-03       1   12    1         0.1327525102E-01      0.9536158060E-01
          0                 5           2             2   11     1       0.2290266575E-03       2   11    1         0.5955757080E-02      0.4250472387E-01
          0                 6           1             2   11     1       0.1027588907E-03       2   11    1         0.2672498759E-02      0.1898710394E-01
          0                 7           1             2   11     1       0.4609953622E-04       2   11    1         0.1199058512E-02      0.8485043302E-02
          0                 8           1             2   11     1       0.2067851352E-04       2   11    1         0.5379071794E-03      0.3792282531E-02
          0                 9           1             2   11     1       0.9274478897E-05       2   11    1         0.2412794007E-03      0.1695067681E-02

    ------------------------------------------------
       NWT REQUIRED            9 OUTER ITERATIONS 
       AND A TOTAL OF         14 INNER ITERATIONS.
    ------------------------------------------------

 OUTPUT CONTROL FOR STRESS PERIOD    2   TIME STEP    1
    PRINT BUDGET
    SAVE BUDGET
 UBUDSV SAVING "         STORAGE" ON UNIT102 AT TIME STEP     1, STRESS PERIOD    2
 UBUDSV SAVING "   CONSTANT HEAD" ON UNIT102 AT TIME STEP     1, STRESS PERIOD    2
 UBUDSV SAVING "FLOW RIGHT FACE " ON UNIT102 AT TIME STEP     1, STRESS PERIOD    2
 UBUDSV SAVING "FLOW FRONT FACE " ON UNIT102 AT TIME STEP     1, STRESS PERIOD    2

  HEAD DEP BOUNDS   PERIOD    2   STEP     1
 BOUNDARY      1   LAYER   1   ROW    13   COL     1   RATE   -0.283736    
 BOUNDARY      2   LAYER   1   ROW    14   COL     9   RATE    0.285828    



 STREAM LISTING     PERIOD      2   STEP        1

 LAYER ROW COL. STREAM  RCH.  FLOW INTO     FLOW TO   FLOW OUT OF   OVRLND.     DIRECT     STREAM       STREAM     STREAM     STREAM   STREAMBED  STREAMBED
                SEG.NO.  NO.  STRM. RCH.    AQUIFER    STRM. RCH.    RUNOFF     PRECIP       ET          HEAD       DEPTH      WIDTH   CONDCTNC.   GRADIENT

   1    1    1     1     1    4.0000E+00  8.7855E-02   3.9121E+00  0.000E+00  0.000E+00  0.000E+00  1.09374E+03  6.973E-01  5.280E+00  2.376E-02  1.232E+00
   1    2    2     1     2    3.9121E+00  1.3511E-01   3.7770E+00  0.000E+00  0.000E+00  0.000E+00  1.08875E+03  6.904E-01  5.230E+00  3.661E-02  1.230E+00
   1    3    3     1     3    3.7770E+00  1.1429E-01   3.6628E+00  0.000E+00  0.000E+00  0.000E+00  1.08310E+03  6.825E-01  5.172E+00  3.103E-02  1.228E+00
   1    3    4     1     4    3.6628E+00  1.0446E-01   3.5583E+00  0.000E+00  0.000E+00  0.000E+00  1.07808E+03  6.755E-01  5.121E+00  2.842E-02  1.225E+00
   1    4    5     2     1    1.5583E+00  2.5094E-01   1.3074E+00  0.000E+00  0.000E+00  0.000E+00  1.07215E+03  2.172E-01  1.200E+01  7.800E-02  1.072E+00
   1    5    6     2     2    1.3074E+00  1.9178E-01   1.1156E+00  0.000E+00  0.000E+00  0.000E+00  1.06671E+03  1.964E-01  1.200E+01  6.000E-02  1.065E+00
   1    6    6     2     3    1.1156E+00  1.9063E-01   9.2494E-01  0.000E+00  0.000E+00  0.000E+00  1.06197E+03  1.772E-01  1.200E+01  6.000E-02  1.059E+00
   1    7    6     2     4    9.2494E-01  1.8939E-01   7.3554E-01  0.000E+00  0.000E+00  0.000E+00  1.05723E+03  1.566E-01  1.200E+01  6.000E-02  1.052E+00
   1    8    6     2     5    7.3554E-01  1.8805E-01   5.4750E-01  0.000E+00  0.000E+00  0.000E+00  1.05249E+03  1.341E-01  1.200E+01  6.000E-02  1.045E+00
   1    3    5     3     1    2.0000E+00  2.8252E-01   1.7175E+00  0.000E+00  0.000E+00  0.000E+00  1.07555E+03  1.909E+00  9.636E+00  7.227E-02  1.955E+00
   1    3    6     3     2    1.7175E+00  2.4905E-01   1.4684E+00  0.000E+00  0.000E+00  0.000E+00  1.07264E+03  1.727E+00  8.909E+00  6.682E-02  1.864E+00
   1    3    7     3     3    1.4684E+00  1.9718E-01   1.2712E+00  0.000E+00  0.000E+00  0.000E+00  1.06987E+03  1.555E+00  8.218E+00  5.547E-02  1.777E+00
   1    4    8     3     4    1.2712E+00  2.2567E-01   1.0456E+00  0.000E+00  0.000E+00  0.000E+00  1.06682E+03  1.364E+00  7.455E+00  6.709E-02  1.682E+00
   1    5    8     3     5    1.0456E+00  1.5790E-01   8.8768E-01  0.000E+00  0.000E+00  0.000E+00  1.06362E+03  1.164E+00  6.655E+00  4.991E-02  1.582E+00
   1    6    8     3     6    8.8768E-01  5.5980E-02   8.3170E-01  0.000E+00  0.000E+00  0.000E+00  1.06158E+03  1.036E+00  6.145E+00  1.844E-02  1.518E+00
   1    5   10     4     1    1.0000E+01  9.0919E-02   9.9091E+00  0.000E+00  0.000E+00  0.000E+00  1.07836E+03  6.368E-01  1.000E+01  2.500E-02  1.212E+00
   1    5    9     4     2    9.9091E+00  1.8158E-01   9.7275E+00  0.000E+00  0.000E+00  0.000E+00  1.07154E+03  6.315E-01  1.000E+01  5.000E-02  1.211E+00
   1    6    8     4     3    9.7275E+00  1.2689E-01   9.6006E+00  0.000E+00  0.000E+00  0.000E+00  1.06381E+03  6.256E-01  1.000E+01  3.500E-02  1.209E+00
   1    6    8     5     1    1.0432E+01  2.2686E-01   1.0205E+01  0.000E+00  0.000E+00  0.000E+00  1.05868E+03  6.790E-01  1.542E+01  6.166E-02  1.226E+00
   1    7    7     5     2    1.0205E+01  2.7894E-01   9.9265E+00  0.000E+00  0.000E+00  0.000E+00  1.05417E+03  6.732E-01  1.519E+01  7.594E-02  1.224E+00
   1    8    7     5     3    9.9265E+00  1.9221E-01   9.7343E+00  0.000E+00  0.000E+00  0.000E+00  1.04992E+03  6.676E-01  1.497E+01  5.241E-02  1.223E+00
   1    8    6     5     4    9.7343E+00  1.3577E-01   9.5985E+00  0.000E+00  0.000E+00  0.000E+00  1.04691E+03  6.637E-01  1.482E+01  3.706E-02  1.221E+00
   1    9    6     6     1    1.0146E+01  2.2237E-01   9.9236E+00  0.000E+00  0.000E+00  0.000E+00  1.04343E+03  7.061E-01  1.200E+01  6.000E-02  1.235E+00
   1   10    7     6     2    9.9236E+00  2.2180E-01   9.7018E+00  0.000E+00  0.000E+00  0.000E+00  1.03888E+03  6.967E-01  1.200E+01  6.000E-02  1.232E+00
   1   11    7     6     3    9.7018E+00  2.2123E-01   9.4806E+00  0.000E+00  0.000E+00  0.000E+00  1.03432E+03  6.872E-01  1.200E+01  6.000E-02  1.229E+00
   1   12    7     6     4    9.4806E+00  2.2066E-01   9.2599E+00  0.000E+00  0.000E+00  0.000E+00  1.02977E+03  6.777E-01  1.200E+01  6.000E-02  1.226E+00
   1   13    7     6     5    9.2599E+00 -8.1378E-02   9.3413E+00  0.000E+00  0.000E+00  0.000E+00  1.02658E+03  6.746E-01  1.200E+01  2.400E-01 -1.130E-01
   1   14    9     7     1    1.5000E+02  1.3368E+00   1.4866E+02  0.000E+00  0.000E+00  0.000E+00  1.03987E+03  2.288E+00  5.529E+01  5.593E-01  7.967E-01
   1   13    8     7     2    1.4866E+02  1.8570E+00   1.4681E+02  0.000E+00  0.000E+00  0.000E+00  1.03478E+03  2.279E+00  5.526E+01  6.148E-01  1.007E+00
   1   13    7     7     3    1.4681E+02  1.5450E+00   1.4526E+02  0.000E+00  0.000E+00  0.000E+00  1.02969E+03  2.270E+00  5.522E+01  5.584E-01  9.222E-01
   1   13    6     8     1    1.5460E+02  8.9678E-01   1.5371E+02  0.000E+00  0.000E+00  0.000E+00  1.02472E+03  2.846E+00  4.126E+01  4.205E-01  7.109E-01
   1   13    5     8     2    1.5371E+02  1.5493E-01   1.5355E+02  0.000E+00  0.000E+00  0.000E+00  1.01847E+03  2.842E+00  4.121E+01  4.200E-01  1.230E-01
   1   13    4     8     3    1.5355E+02 -2.4802E+00   1.5603E+02  0.000E+00  0.000E+00  0.000E+00  1.01223E+03  2.850E+00  4.133E+01  4.212E+00 -1.963E-01
   1   13    3     8     4    1.5603E+02 -3.5738E+00   1.5960E+02  0.000E+00  0.000E+00  0.000E+00  1.00600E+03  2.871E+00  4.163E+01  4.242E+00 -2.808E-01
   1   13    2     8     5    1.5960E+02 -2.3816E+00   1.6199E+02  0.000E+00  0.000E+00  0.000E+00  9.99766E+02  2.891E+00  4.192E+01  4.272E+00 -1.858E-01
   1   13    1     8     6    1.6199E+02 -1.7684E+00   1.6375E+02  0.000E+00  0.000E+00  0.000E+00  9.94780E+02  2.905E+00  4.212E+01  2.576E+00 -2.289E-01
   1    6    8     9     1    2.2961E-05  0.0000E+00   2.2961E-05  0.000E+00  0.000E+00  0.000E+00  1.07850E+03  2.043E-04  4.000E+00  0.000E+00  1.000E+00



 UBDSV3 SAVING "     NETRECHARGE" ON UNIT 100 AT TIME STEP     1, STRESS PERIOD   2
 UBDSV3 SAVING "    NETDISCHARGE" ON UNIT 101 AT TIME STEP     1, STRESS PERIOD   2
 UBDSV3 SAVING "           GW ET" ON UNIT  61 AT TIME STEP     1, STRESS PERIOD   2
 UBDSV3 SAVING "    UZF RECHARGE" ON UNIT  61 AT TIME STEP     1, STRESS PERIOD   2
 UBDSV3 SAVING " SURFACE LEAKAGE" ON UNIT  61 AT TIME STEP     1, STRESS PERIOD   2
 UBDSV3 SAVING "       HORT+DUNN" ON UNIT  61 AT TIME STEP     1, STRESS PERIOD   2
 UBDSV3 SAVING "  STORAGE CHANGE" ON UNIT  61 AT TIME STEP     1, STRESS PERIOD   2


UNSATURATED ZONE PACKAGE VOLUMETRIC BUDGET FOR  TIME STEP     1 STRESS PERIOD    2
  ------------------------------------------------------------------------------



     CUMULATIVE VOLUMES      L**3       RATES FOR THIS TIME STEP      L**3/T
     ------------------                 ------------------------

           IN:                                      IN:
           ---                                      ---
        INFILTRATION =      151807.6534          INFILTRATION =           0.0000

          OUT:                                     OUT:
          ----                                     ----
              UZF ET =       25397.9527                UZF ET =           0.2899
        UZF RECHARGE =     2650147.5498          UZF RECHARGE =          28.5199

            IN - OUT =    -2523737.8491              IN - OUT =         -28.8098

          STORAGE:                                 STORAGE:
          --------                                 --------
      STORAGE CHANGE =    -2519862.6391        STORAGE CHANGE =         -28.7656

 PERCENT DISCREPANCY IS DIFFERENCE BETWEEN IN-OUT MINUS CHANGE IN STORAGE
 DIVIDED BY THE AVERAGE OF IN AND OUT TIMES 100

 PERCENT DISCREPANCY =          -0.04     PERCENT DISCREPANCY =          -0.15






1
  VOLUMETRIC BUDGET FOR ENTIRE MODEL AT END OF TIME STEP    1, STRESS PERIOD   2
  ------------------------------------------------------------------------------

     CUMULATIVE VOLUMES      L**3       RATES FOR THIS TIME STEP      L**3/T
     ------------------                 ------------------------

           IN:                                      IN:
           ---                                      ---
             STORAGE     =           0.0000               STORAGE     =           0.0000
       CONSTANT HEAD     =           0.0000         CONSTANT HEAD     =           0.0000
               WELLS     =           0.0000                 WELLS     =           0.0000
     HEAD DEP BOUNDS     =       49745.1484       HEAD DEP BOUNDS     =           0.2858
      STREAM LEAKAGE     =     1832847.7500        STREAM LEAKAGE     =          10.5306
        UZF RECHARGE     =     2650147.7500          UZF RECHARGE     =          28.5199
               GW ET     =           0.0000                 GW ET     =           0.0000
     SURFACE LEAKAGE     =           0.0000       SURFACE LEAKAGE     =           0.0000
    SUPPLEMENTARY WELLS  =           0.0000      SUPPLEMENTARY WELLS  =           0.0000

                TOTAL IN =     4532740.5000                  TOTAL IN =          39.3363

          OUT:                                     OUT:
          ----                                     ----
             STORAGE     =     2519494.7500               STORAGE     =          28.7614
       CONSTANT HEAD     =           0.0000         CONSTANT HEAD     =           0.0000
               WELLS     =           0.0000                 WELLS     =           0.0000
     HEAD DEP BOUNDS     =       49340.8438       HEAD DEP BOUNDS     =           0.2837
      STREAM LEAKAGE     =     1782605.7500        STREAM LEAKAGE     =          10.2853
        UZF RECHARGE     =           0.0000          UZF RECHARGE     =           0.0000
               GW ET     =      149509.9688                 GW ET     =       4.0645E-06
     SURFACE LEAKAGE     =           0.0000       SURFACE LEAKAGE     =           0.0000
    SUPPLEMENTARY WELLS  =       31277.1836      SUPPLEMENTARY WELLS  =       2.4702E-06

               TOTAL OUT =     4532228.0000                 TOTAL OUT =          39.3304

                IN - OUT =         512.5000                  IN - OUT =       5.8403E-03

     PERCENT DISCREPANCY =           0.01         PERCENT DISCREPANCY =           0.01






         TIME SUMMARY AT END OF TIME STEP    1 IN STRESS PERIOD    2
                    SECONDS     MINUTES      HOURS       DAYS        YEARS
                    -----------------------------------------------------------
   TIME STEP LENGTH  87600.      1460.0      24.333      1.0139     2.77588E-03
 STRESS PERIOD TIME  87600.      1460.0      24.333      1.0139     2.77588E-03
         TOTAL TIME 1.74000E+05  2900.0      48.333      2.0139     5.51373E-03
1
 
 SOLVING FOR HEAD 
                                                   Max.-Head-Change                         Max.-Flux-Residual
  Residual-Control   Outer-Iter.   Inner-Iter.     Column Row Layer    Maximum-Head-Change  Column Row Layer    Maximum-Flux-Residual          L2-NORM 
          0                 1           2             6   13     1       0.7373775223E-02       6   13    1         0.3893346739E+00      0.1755160590E+01
          0                 2           2             1   12     1       0.2534635555E-02       6   13    1         0.6633349986E-01      0.5296924630E+00
          0                 3           2             1   12     1       0.1136397815E-02       1   12    1         0.2957581372E-01      0.2155437107E+00
          0                 4           2             2   11     1       0.5098147707E-03       1   12    1         0.1325813997E-01      0.9487612492E-01
          0                 5           2             2   11     1       0.2287454663E-03       2   11    1         0.5949014772E-02      0.4230381115E-01
          0                 6           1             2   11     1       0.1026210527E-03       2   11    1         0.2669160563E-02      0.1889988983E-01
          0                 7           1             2   11     1       0.4603264902E-04       2   11    1         0.1197425462E-02      0.8446852756E-02
          0                 8           1             2   11     1       0.2064632472E-04       2   11    1         0.5371160292E-03      0.3775572192E-02
          0                 9           1             2   11     1       0.9259095817E-05       2   11    1         0.2408991971E-03      0.1687747014E-02

    ------------------------------------------------
       NWT REQUIRED            9 OUTER ITERATIONS 
       AND A TOTAL OF         14 INNER ITERATIONS.
    ------------------------------------------------

 OUTPUT CONTROL WAS SPECIFIED FOR A NONEXISTENT TIME STEP
 OR OUTPUT CONTROL DATA ARE NOT ENTERED IN ASCENDING ORDER
 OUTPUT CONTROL STRESS PERIOD    1   TIME STEP    5
 MODEL STRESS PERIOD    2   TIME STEP    2
 APPLYING THE SPECIFIED OUTPUT CONTROL TO THE CURRENT TIME STEP

 OUTPUT CONTROL FOR STRESS PERIOD    2   TIME STEP    2
    PRINT BUDGET
    SAVE BUDGET
 UBUDSV SAVING "         STORAGE" ON UNIT102 AT TIME STEP     2, STRESS PERIOD    2
 UBUDSV SAVING "   CONSTANT HEAD" ON UNIT102 AT TIME STEP     2, STRESS PERIOD    2
 UBUDSV SAVING "FLOW RIGHT FACE " ON UNIT102 AT TIME STEP     2, STRESS PERIOD    2
 UBUDSV SAVING "FLOW FRONT FACE " ON UNIT102 AT TIME STEP     2, STRESS PERIOD    2

  HEAD DEP BOUNDS   PERIOD    2   STEP     2
 BOUNDARY      1   LAYER   1   ROW    13   COL     1   RATE   -0.284057    
 BOUNDARY      2   LAYER   1   ROW    14   COL     9   RATE    0.285700    



 STREAM LISTING     PERIOD      2   STEP        2

 LAYER ROW COL. STREAM  RCH.  FLOW INTO     FLOW TO   FLOW OUT OF   OVRLND.     DIRECT     STREAM       STREAM     STREAM     STREAM   STREAMBED  STREAMBED
                SEG.NO.  NO.  STRM. RCH.    AQUIFER    STRM. RCH.    RUNOFF     PRECIP       ET          HEAD       DEPTH      WIDTH   CONDCTNC.   GRADIENT

   1    1    1     1     1    4.0000E+00  8.7855E-02   3.9121E+00  0.000E+00  0.000E+00  0.000E+00  1.09374E+03  6.973E-01  5.280E+00  2.376E-02  1.232E+00
   1    2    2     1     2    3.9121E+00  1.3511E-01   3.7770E+00  0.000E+00  0.000E+00  0.000E+00  1.08875E+03  6.904E-01  5.230E+00  3.661E-02  1.230E+00
   1    3    3     1     3    3.7770E+00  1.1429E-01   3.6628E+00  0.000E+00  0.000E+00  0.000E+00  1.08310E+03  6.825E-01  5.172E+00  3.103E-02  1.228E+00
   1    3    4     1     4    3.6628E+00  1.0446E-01   3.5583E+00  0.000E+00  0.000E+00  0.000E+00  1.07808E+03  6.755E-01  5.121E+00  2.842E-02  1.225E+00
   1    4    5     2     1    1.5583E+00  2.5094E-01   1.3074E+00  0.000E+00  0.000E+00  0.000E+00  1.07215E+03  2.172E-01  1.200E+01  7.800E-02  1.072E+00
   1    5    6     2     2    1.3074E+00  1.9178E-01   1.1156E+00  0.000E+00  0.000E+00  0.000E+00  1.06671E+03  1.964E-01  1.200E+01  6.000E-02  1.065E+00
   1    6    6     2     3    1.1156E+00  1.9063E-01   9.2494E-01  0.000E+00  0.000E+00  0.000E+00  1.06197E+03  1.772E-01  1.200E+01  6.000E-02  1.059E+00
   1    7    6     2     4    9.2494E-01  1.8939E-01   7.3554E-01  0.000E+00  0.000E+00  0.000E+00  1.05723E+03  1.566E-01  1.200E+01  6.000E-02  1.052E+00
   1    8    6     2     5    7.3554E-01  1.8805E-01   5.4750E-01  0.000E+00  0.000E+00  0.000E+00  1.05249E+03  1.341E-01  1.200E+01  6.000E-02  1.045E+00
   1    3    5     3     1    2.0000E+00  2.8252E-01   1.7175E+00  0.000E+00  0.000E+00  0.000E+00  1.07555E+03  1.909E+00  9.636E+00  7.227E-02  1.955E+00
   1    3    6     3     2    1.7175E+00  2.4905E-01   1.4684E+00  0.000E+00  0.000E+00  0.000E+00  1.07264E+03  1.727E+00  8.909E+00  6.682E-02  1.864E+00
   1    3    7     3     3    1.4684E+00  1.9718E-01   1.2712E+00  0.000E+00  0.000E+00  0.000E+00  1.06987E+03  1.555E+00  8.218E+00  5.547E-02  1.777E+00
   1    4    8     3     4    1.2712E+00  2.2567E-01   1.0456E+00  0.000E+00  0.000E+00  0.000E+00  1.06682E+03  1.364E+00  7.455E+00  6.709E-02  1.682E+00
   1    5    8     3     5    1.0456E+00  1.5790E-01   8.8768E-01  0.000E+00  0.000E+00  0.000E+00  1.06362E+03  1.164E+00  6.655E+00  4.991E-02  1.582E+00
   1    6    8     3     6    8.8768E-01  5.5980E-02   8.3170E-01  0.000E+00  0.000E+00  0.000E+00  1.06158E+03  1.036E+00  6.145E+00  1.844E-02  1.518E+00
   1    5   10     4     1    1.0000E+01  9.0919E-02   9.9091E+00  0.000E+00  0.000E+00  0.000E+00  1.07836E+03  6.368E-01  1.000E+01  2.500E-02  1.212E+00
   1    5    9     4     2    9.9091E+00  1.8158E-01   9.7275E+00  0.000E+00  0.000E+00  0.000E+00  1.07154E+03  6.315E-01  1.000E+01  5.000E-02  1.211E+00
   1    6    8     4     3    9.7275E+00  1.2689E-01   9.6006E+00  0.000E+00  0.000E+00  0.000E+00  1.06381E+03  6.256E-01  1.000E+01  3.500E-02  1.209E+00
   1    6    8     5     1    1.0432E+01  2.2686E-01   1.0205E+01  0.000E+00  0.000E+00  0.000E+00  1.05868E+03  6.790E-01  1.542E+01  6.166E-02  1.226E+00
   1    7    7     5     2    1.0205E+01  2.7894E-01   9.9265E+00  0.000E+00  0.000E+00  0.000E+00  1.05417E+03  6.732E-01  1.519E+01  7.594E-02  1.224E+00
   1    8    7     5     3    9.9265E+00  1.9221E-01   9.7343E+00  0.000E+00  0.000E+00  0.000E+00  1.04992E+03  6.676E-01  1.497E+01  5.241E-02  1.223E+00
   1    8    6     5     4    9.7343E+00  1.3577E-01   9.5985E+00  0.000E+00  0.000E+00  0.000E+00  1.04691E+03  6.637E-01  1.482E+01  3.706E-02  1.221E+00
   1    9    6     6     1    1.0146E+01  2.2237E-01   9.9237E+00  0.000E+00  0.000E+00  0.000E+00  1.04343E+03  7.061E-01  1.200E+01  6.000E-02  1.235E+00
   1   10    7     6     2    9.9237E+00  2.2180E-01   9.7019E+00  0.000E+00  0.000E+00  0.000E+00  1.03888E+03  6.967E-01  1.200E+01  6.000E-02  1.232E+00
   1   11    7     6     3    9.7019E+00  2.2123E-01   9.4806E+00  0.000E+00  0.000E+00  0.000E+00  1.03432E+03  6.872E-01  1.200E+01  6.000E-02  1.229E+00
   1   12    7     6     4    9.4806E+00  2.2066E-01   9.2600E+00  0.000E+00  0.000E+00  0.000E+00  1.02977E+03  6.777E-01  1.200E+01  6.000E-02  1.226E+00
   1   13    7     6     5    9.2600E+00 -8.3368E-02   9.3433E+00  0.000E+00  0.000E+00  0.000E+00  1.02658E+03  6.747E-01  1.200E+01  2.400E-01 -1.158E-01
   1   14    9     7     1    1.5000E+02  1.3349E+00   1.4867E+02  0.000E+00  0.000E+00  0.000E+00  1.03987E+03  2.288E+00  5.529E+01  5.593E-01  7.956E-01
   1   13    8     7     2    1.4867E+02  1.8548E+00   1.4681E+02  0.000E+00  0.000E+00  0.000E+00  1.03478E+03  2.279E+00  5.526E+01  6.148E-01  1.006E+00
   1   13    7     7     3    1.4681E+02  1.5404E+00   1.4527E+02  0.000E+00  0.000E+00  0.000E+00  1.02969E+03  2.270E+00  5.522E+01  5.584E-01  9.195E-01
   1   13    6     8     1    1.5461E+02  8.9310E-01   1.5372E+02  0.000E+00  0.000E+00  0.000E+00  1.02472E+03  2.846E+00  4.127E+01  4.205E-01  7.079E-01
   1   13    5     8     2    1.5372E+02  1.5128E-01   1.5357E+02  0.000E+00  0.000E+00  0.000E+00  1.01847E+03  2.842E+00  4.121E+01  4.200E-01  1.201E-01
   1   13    4     8     3    1.5357E+02 -2.5121E+00   1.5608E+02  0.000E+00  0.000E+00  0.000E+00  1.01223E+03  2.850E+00  4.133E+01  4.212E+00 -1.988E-01
   1   13    3     8     4    1.5608E+02 -3.6054E+00   1.5969E+02  0.000E+00  0.000E+00  0.000E+00  1.00600E+03  2.871E+00  4.164E+01  4.243E+00 -2.833E-01
   1   13    2     8     5    1.5969E+02 -2.4135E+00   1.6210E+02  0.000E+00  0.000E+00  0.000E+00  9.99767E+02  2.892E+00  4.193E+01  4.273E+00 -1.883E-01
   1   13    1     8     6    1.6210E+02 -1.7885E+00   1.6389E+02  0.000E+00  0.000E+00  0.000E+00  9.94781E+02  2.906E+00  4.214E+01  2.576E+00 -2.314E-01
   1    6    8     9     1    0.0000E+00  0.0000E+00   0.0000E+00  0.000E+00  0.000E+00  0.000E+00  1.07850E+03  0.000E+00  4.000E+00  0.000E+00  1.000E+00



 UBDSV3 SAVING "     NETRECHARGE" ON UNIT 100 AT TIME STEP     2, STRESS PERIOD   2
 UBDSV3 SAVING "    NETDISCHARGE" ON UNIT 101 AT TIME STEP     2, STRESS PERIOD   2
 UBDSV3 SAVING "           GW ET" ON UNIT  61 AT TIME STEP     2, STRESS PERIOD   2
 UBDSV3 SAVING "    UZF RECHARGE" ON UNIT  61 AT TIME STEP     2, STRESS PERIOD   2
 UBDSV3 SAVING " SURFACE LEAKAGE" ON UNIT  61 AT TIME STEP     2, STRESS PERIOD   2
 UBDSV3 SAVING "       HORT+DUNN" ON UNIT  61 AT TIME STEP     2, STRESS PERIOD   2
 UBDSV3 SAVING "  STORAGE CHANGE" ON UNIT  61 AT TIME STEP     2, STRESS PERIOD   2


UNSATURATED ZONE PACKAGE VOLUMETRIC BUDGET FOR  TIME STEP     2 STRESS PERIOD    2
  ------------------------------------------------------------------------------



     CUMULATIVE VOLUMES      L**3       RATES FOR THIS TIME STEP      L**3/T
     ------------------                 ------------------------

           IN:                                      IN:
           ---                                      ---
        INFILTRATION =      151807.6534          INFILTRATION =       0.0000E+00

          OUT:                                     OUT:
          ----                                     ----
              UZF ET =       50801.9526                UZF ET =           0.2900
        UZF RECHARGE =     5142211.2412          UZF RECHARGE =          28.4482

            IN - OUT =    -5041205.5404              IN - OUT =         -28.7382

          STORAGE:                                 STORAGE:
          --------                                 --------
      STORAGE CHANGE =    -5037313.7802        STORAGE CHANGE =         -28.7380

 PERCENT DISCREPANCY IS DIFFERENCE BETWEEN IN-OUT MINUS CHANGE IN STORAGE
 DIVIDED BY THE AVERAGE OF IN AND OUT TIMES 100

 PERCENT DISCREPANCY =          -0.02     PERCENT DISCREPANCY =          -0.00






1
  VOLUMETRIC BUDGET FOR ENTIRE MODEL AT END OF TIME STEP    2, STRESS PERIOD   2
  ------------------------------------------------------------------------------

     CUMULATIVE VOLUMES      L**3       RATES FOR THIS TIME STEP      L**3/T
     ------------------                 ------------------------

           IN:                                      IN:
           ---                                      ---
             STORAGE     =           0.0000               STORAGE     =           0.0000
       CONSTANT HEAD     =           0.0000         CONSTANT HEAD     =           0.0000
               WELLS     =           0.0000                 WELLS     =           0.0000
     HEAD DEP BOUNDS     =       74772.4375       HEAD DEP BOUNDS     =           0.2857
      STREAM LEAKAGE     =     2753924.5000        STREAM LEAKAGE     =          10.5146
        UZF RECHARGE     =     5142211.5000          UZF RECHARGE     =          28.4482
               GW ET     =           0.0000                 GW ET     =           0.0000
     SURFACE LEAKAGE     =           0.0000       SURFACE LEAKAGE     =           0.0000
    SUPPLEMENTARY WELLS  =           0.0000      SUPPLEMENTARY WELLS  =           0.0000

                TOTAL IN =     7970908.5000                  TOTAL IN =          39.2485

          OUT:                                     OUT:
          ----                                     ----
             STORAGE     =     5020978.0000               STORAGE     =          28.5557
       CONSTANT HEAD     =           0.0000         CONSTANT HEAD     =           0.0000
               WELLS     =           0.0000                 WELLS     =           0.0000
     HEAD DEP BOUNDS     =       74224.2188       HEAD DEP BOUNDS     =           0.2841
      STREAM LEAKAGE     =     2693897.5000        STREAM LEAKAGE     =          10.4029
        UZF RECHARGE     =           0.0000          UZF RECHARGE     =           0.0000
               GW ET     =      149509.9688                 GW ET     =       3.0132E-10
     SURFACE LEAKAGE     =           0.0000       SURFACE LEAKAGE     =           0.0000
    SUPPLEMENTARY WELLS  =       31277.1836      SUPPLEMENTARY WELLS  =           0.0000

               TOTAL OUT =     7969886.5000                 TOTAL OUT =          39.2427

                IN - OUT =        1022.0000                  IN - OUT =       5.8136E-03

     PERCENT DISCREPANCY =           0.01         PERCENT DISCREPANCY =           0.01






         TIME SUMMARY AT END OF TIME STEP    2 IN STRESS PERIOD    2
                    SECONDS     MINUTES      HOURS       DAYS        YEARS
                    -----------------------------------------------------------
   TIME STEP LENGTH  87600.      1460.0      24.333      1.0139     2.77588E-03
 STRESS PERIOD TIME 1.75200E+05  2920.0      48.667      2.0278     5.55175E-03
         TOTAL TIME 2.61600E+05  4360.0      72.667      3.0278     8.28960E-03
1
 
 SOLVING FOR HEAD 
                                                   Max.-Head-Change                         Max.-Flux-Residual
  Residual-Control   Outer-Iter.   Inner-Iter.     Column Row Layer    Maximum-Head-Change  Column Row Layer    Maximum-Flux-Residual          L2-NORM 
          0                 1           2             6   13     1       0.7234243780E-02       6   13    1         0.3819363506E+00      0.1725119254E+01
          0                 2           2             1   12     1       0.2531176142E-02       1   12    1         0.6583474499E-01      0.5253869178E+00
          0                 3           2             1   12     1       0.1134774016E-02       1   12    1         0.2953490265E-01      0.2144103476E+00
          0                 4           2             2   11     1       0.5091463633E-03       2   11    1         0.1324124429E-01      0.9442491647E-01
          0                 5           2             2   11     1       0.2284203309E-03       2   11    1         0.5941091935E-02      0.4210806373E-01
          0                 6           1             2   11     1       0.1024642731E-03       2   11    1         0.2665313356E-02      0.1881393864E-01
          0                 7           1             2   11     1       0.4595759933E-04       2   11    1         0.1195573028E-02      0.8409036854E-02
          0                 8           1             2   11     1       0.2061062012E-04       2   11    1         0.5362303648E-03      0.3758931378E-02
          0                 9           1             2   11     1       0.9242199691E-05       2   11    1         0.2404782850E-03      0.1680421411E-02

    ------------------------------------------------
       NWT REQUIRED            9 OUTER ITERATIONS 
       AND A TOTAL OF         14 INNER ITERATIONS.
    ------------------------------------------------

 OUTPUT CONTROL WAS SPECIFIED FOR A NONEXISTENT TIME STEP
 OR OUTPUT CONTROL DATA ARE NOT ENTERED IN ASCENDING ORDER
 OUTPUT CONTROL STRESS PERIOD    1   TIME STEP   10
 MODEL STRESS PERIOD    2   TIME STEP    3
 APPLYING THE SPECIFIED OUTPUT CONTROL TO THE CURRENT TIME STEP

 OUTPUT CONTROL FOR STRESS PERIOD    2   TIME STEP    3
    PRINT BUDGET
    SAVE BUDGET
 UBUDSV SAVING "         STORAGE" ON UNIT102 AT TIME STEP     3, STRESS PERIOD    2
 UBUDSV SAVING "   CONSTANT HEAD" ON UNIT102 AT TIME STEP     3, STRESS PERIOD    2
 UBUDSV SAVING "FLOW RIGHT FACE " ON UNIT102 AT TIME STEP     3, STRESS PERIOD    2
 UBUDSV SAVING "FLOW FRONT FACE " ON UNIT102 AT TIME STEP     3, STRESS PERIOD    2

  HEAD DEP BOUNDS   PERIOD    2   STEP     3
 BOUNDARY      1   LAYER   1   ROW    13   COL     1   RATE   -0.284360    
 BOUNDARY      2   LAYER   1   ROW    14   COL     9   RATE    0.285573    



 STREAM LISTING     PERIOD      2   STEP        3

 LAYER ROW COL. STREAM  RCH.  FLOW INTO     FLOW TO   FLOW OUT OF   OVRLND.     DIRECT     STREAM       STREAM     STREAM     STREAM   STREAMBED  STREAMBED
                SEG.NO.  NO.  STRM. RCH.    AQUIFER    STRM. RCH.    RUNOFF     PRECIP       ET          HEAD       DEPTH      WIDTH   CONDCTNC.   GRADIENT

   1    1    1     1     1    4.0000E+00  8.7855E-02   3.9121E+00  0.000E+00  0.000E+00  0.000E+00  1.09374E+03  6.973E-01  5.280E+00  2.376E-02  1.232E+00
   1    2    2     1     2    3.9121E+00  1.3511E-01   3.7770E+00  0.000E+00  0.000E+00  0.000E+00  1.08875E+03  6.904E-01  5.230E+00  3.661E-02  1.230E+00
   1    3    3     1     3    3.7770E+00  1.1429E-01   3.6628E+00  0.000E+00  0.000E+00  0.000E+00  1.08310E+03  6.825E-01  5.172E+00  3.103E-02  1.228E+00
   1    3    4     1     4    3.6628E+00  1.0446E-01   3.5583E+00  0.000E+00  0.000E+00  0.000E+00  1.07808E+03  6.755E-01  5.121E+00  2.842E-02  1.225E+00
   1    4    5     2     1    1.5583E+00  2.5094E-01   1.3074E+00  0.000E+00  0.000E+00  0.000E+00  1.07215E+03  2.172E-01  1.200E+01  7.800E-02  1.072E+00
   1    5    6     2     2    1.3074E+00  1.9178E-01   1.1156E+00  0.000E+00  0.000E+00  0.000E+00  1.06671E+03  1.964E-01  1.200E+01  6.000E-02  1.065E+00
   1    6    6     2     3    1.1156E+00  1.9063E-01   9.2494E-01  0.000E+00  0.000E+00  0.000E+00  1.06197E+03  1.772E-01  1.200E+01  6.000E-02  1.059E+00
   1    7    6     2     4    9.2494E-01  1.8939E-01   7.3554E-01  0.000E+00  0.000E+00  0.000E+00  1.05723E+03  1.566E-01  1.200E+01  6.000E-02  1.052E+00
   1    8    6     2     5    7.3554E-01  1.8805E-01   5.4750E-01  0.000E+00  0.000E+00  0.000E+00  1.05249E+03  1.341E-01  1.200E+01  6.000E-02  1.045E+00
   1    3    5     3     1    2.0000E+00  2.8252E-01   1.7175E+00  0.000E+00  0.000E+00  0.000E+00  1.07555E+03  1.909E+00  9.636E+00  7.227E-02  1.955E+00
   1    3    6     3     2    1.7175E+00  2.4905E-01   1.4684E+00  0.000E+00  0.000E+00  0.000E+00  1.07264E+03  1.727E+00  8.909E+00  6.682E-02  1.864E+00
   1    3    7     3     3    1.4684E+00  1.9718E-01   1.2712E+00  0.000E+00  0.000E+00  0.000E+00  1.06987E+03  1.555E+00  8.218E+00  5.547E-02  1.777E+00
   1    4    8     3     4    1.2712E+00  2.2567E-01   1.0456E+00  0.000E+00  0.000E+00  0.000E+00  1.06682E+03  1.364E+00  7.455E+00  6.709E-02  1.682E+00
   1    5    8     3     5    1.0456E+00  1.5790E-01   8.8768E-01  0.000E+00  0.000E+00  0.000E+00  1.06362E+03  1.164E+00  6.655E+00  4.991E-02  1.582E+00
   1    6    8     3     6    8.8768E-01  5.5980E-02   8.3170E-01  0.000E+00  0.000E+00  0.000E+00  1.06158E+03  1.036E+00  6.145E+00  1.844E-02  1.518E+00
   1    5   10     4     1    1.0000E+01  9.0919E-02   9.9091E+00  0.000E+00  0.000E+00  0.000E+00  1.07836E+03  6.368E-01  1.000E+01  2.500E-02  1.212E+00
   1    5    9     4     2    9.9091E+00  1.8158E-01   9.7275E+00  0.000E+00  0.000E+00  0.000E+00  1.07154E+03  6.315E-01  1.000E+01  5.000E-02  1.211E+00
   1    6    8     4     3    9.7275E+00  1.2689E-01   9.6006E+00  0.000E+00  0.000E+00  0.000E+00  1.06381E+03  6.256E-01  1.000E+01  3.500E-02  1.209E+00
   1    6    8     5     1    1.0432E+01  2.2686E-01   1.0205E+01  0.000E+00  0.000E+00  0.000E+00  1.05868E+03  6.790E-01  1.542E+01  6.166E-02  1.226E+00
   1    7    7     5     2    1.0205E+01  2.7894E-01   9.9265E+00  0.000E+00  0.000E+00  0.000E+00  1.05417E+03  6.732E-01  1.519E+01  7.594E-02  1.224E+00
   1    8    7     5     3    9.9265E+00  1.9221E-01   9.7343E+00  0.000E+00  0.000E+00  0.000E+00  1.04992E+03  6.676E-01  1.497E+01  5.241E-02  1.223E+00
   1    8    6     5     4    9.7343E+00  1.3577E-01   9.5985E+00  0.000E+00  0.000E+00  0.000E+00  1.04691E+03  6.637E-01  1.482E+01  3.706E-02  1.221E+00
   1    9    6     6     1    1.0146E+01  2.2237E-01   9.9237E+00  0.000E+00  0.000E+00  0.000E+00  1.04343E+03  7.061E-01  1.200E+01  6.000E-02  1.235E+00
   1   10    7     6     2    9.9237E+00  2.2180E-01   9.7019E+00  0.000E+00  0.000E+00  0.000E+00  1.03888E+03  6.967E-01  1.200E+01  6.000E-02  1.232E+00
   1   11    7     6     3    9.7019E+00  2.2123E-01   9.4806E+00  0.000E+00  0.000E+00  0.000E+00  1.03432E+03  6.872E-01  1.200E+01  6.000E-02  1.229E+00
   1   12    7     6     4    9.4806E+00  2.2066E-01   9.2600E+00  0.000E+00  0.000E+00  0.000E+00  1.02977E+03  6.777E-01  1.200E+01  6.000E-02  1.226E+00
   1   13    7     6     5    9.2600E+00 -8.5299E-02   9.3453E+00  0.000E+00  0.000E+00  0.000E+00  1.02658E+03  6.747E-01  1.200E+01  2.400E-01 -1.185E-01
   1   14    9     7     1    1.5000E+02  1.3331E+00   1.4867E+02  0.000E+00  0.000E+00  0.000E+00  1.03987E+03  2.288E+00  5.529E+01  5.593E-01  7.945E-01
   1   13    8     7     2    1.4867E+02  1.8527E+00   1.4681E+02  0.000E+00  0.000E+00  0.000E+00  1.03478E+03  2.279E+00  5.526E+01  6.148E-01  1.005E+00
   1   13    7     7     3    1.4681E+02  1.5359E+00   1.4528E+02  0.000E+00  0.000E+00  0.000E+00  1.02969E+03  2.270E+00  5.522E+01  5.584E-01  9.168E-01
   1   13    6     8     1    1.5462E+02  8.8949E-01   1.5373E+02  0.000E+00  0.000E+00  0.000E+00  1.02472E+03  2.846E+00  4.127E+01  4.205E-01  7.051E-01
   1   13    5     8     2    1.5373E+02  1.4772E-01   1.5359E+02  0.000E+00  0.000E+00  0.000E+00  1.01847E+03  2.842E+00  4.122E+01  4.200E-01  1.172E-01
   1   13    4     8     3    1.5359E+02 -2.5411E+00   1.5613E+02  0.000E+00  0.000E+00  0.000E+00  1.01223E+03  2.851E+00  4.134E+01  4.212E+00 -2.011E-01
   1   13    3     8     4    1.5613E+02 -3.6341E+00   1.5976E+02  0.000E+00  0.000E+00  0.000E+00  1.00600E+03  2.872E+00  4.164E+01  4.243E+00 -2.855E-01
   1   13    2     8     5    1.5976E+02 -2.4427E+00   1.6220E+02  0.000E+00  0.000E+00  0.000E+00  9.99767E+02  2.892E+00  4.194E+01  4.274E+00 -1.905E-01
   1   13    1     8     6    1.6220E+02 -1.8076E+00   1.6401E+02  0.000E+00  0.000E+00  0.000E+00  9.94782E+02  2.907E+00  4.215E+01  2.577E+00 -2.338E-01
   1    6    8     9     1    0.0000E+00  0.0000E+00   0.0000E+00  0.000E+00  0.000E+00  0.000E+00  1.07850E+03  0.000E+00  4.000E+00  0.000E+00  1.000E+00



 UBDSV3 SAVING "     NETRECHARGE" ON UNIT 100 AT TIME STEP     3, STRESS PERIOD   2
 UBDSV3 SAVING "    NETDISCHARGE" ON UNIT 101 AT TIME STEP     3, STRESS PERIOD   2
 UBDSV3 SAVING "           GW ET" ON UNIT  61 AT TIME STEP     3, STRESS PERIOD   2
 UBDSV3 SAVING "    UZF RECHARGE" ON UNIT  61 AT TIME STEP     3, STRESS PERIOD   2
 UBDSV3 SAVING " SURFACE LEAKAGE" ON UNIT  61 AT TIME STEP     3, STRESS PERIOD   2
 UBDSV3 SAVING "       HORT+DUNN" ON UNIT  61 AT TIME STEP     3, STRESS PERIOD   2
 UBDSV3 SAVING "  STORAGE CHANGE" ON UNIT  61 AT TIME STEP     3, STRESS PERIOD   2


UNSATURATED ZONE PACKAGE VOLUMETRIC BUDGET FOR  TIME STEP     3 STRESS PERIOD    2
  ------------------------------------------------------------------------------



     CUMULATIVE VOLUMES      L**3       RATES FOR THIS TIME STEP      L**3/T
     ------------------                 ------------------------

           IN:                                      IN:
           ---                                      ---
        INFILTRATION =      151807.6534          INFILTRATION =       0.0000E+00

          OUT:                                     OUT:
          ----                                     ----
              UZF ET =       76205.9526                UZF ET =           0.2900
        UZF RECHARGE =     7628314.6689          UZF RECHARGE =          28.3802

            IN - OUT =    -7552712.9682              IN - OUT =         -28.6702

          STORAGE:                                 STORAGE:
          --------                                 --------
      STORAGE CHANGE =    -7548811.0466        STORAGE CHANGE =         -28.6701

 PERCENT DISCREPANCY IS DIFFERENCE BETWEEN IN-OUT MINUS CHANGE IN STORAGE
 DIVIDED BY THE AVERAGE OF IN AND OUT TIMES 100

 PERCENT DISCREPANCY =          -0.01     PERCENT DISCREPANCY =          -0.00






1
  VOLUMETRIC BUDGET FOR ENTIRE MODEL AT END OF TIME STEP    3, STRESS PERIOD   2
  ------------------------------------------------------------------------------

     CUMULATIVE VOLUMES      L**3       RATES FOR THIS TIME STEP      L**3/T
     ------------------                 ------------------------

           IN:                                      IN:
           ---                                      ---
             STORAGE     =           0.0000               STORAGE     =           0.0000
       CONSTANT HEAD     =           0.0000         CONSTANT HEAD     =           0.0000
               WELLS     =           0.0000                 WELLS     =           0.0000
     HEAD DEP BOUNDS     =       99788.6172       HEAD DEP BOUNDS     =           0.2856
      STREAM LEAKAGE     =     3673625.2500        STREAM LEAKAGE     =          10.4989
        UZF RECHARGE     =     7628315.0000          UZF RECHARGE     =          28.3802
               GW ET     =           0.0000                 GW ET     =           0.0000
     SURFACE LEAKAGE     =           0.0000       SURFACE LEAKAGE     =           0.0000
    SUPPLEMENTARY WELLS  =           0.0000      SUPPLEMENTARY WELLS  =           0.0000

                TOTAL IN =    11401729.0000                  TOTAL IN =          39.1646

          OUT:                                     OUT:
          ----                                     ----
             STORAGE     =     7505635.0000               STORAGE     =          28.3637
       CONSTANT HEAD     =           0.0000         CONSTANT HEAD     =           0.0000
               WELLS     =           0.0000                 WELLS     =           0.0000
     HEAD DEP BOUNDS     =       99134.1562       HEAD DEP BOUNDS     =           0.2844
      STREAM LEAKAGE     =     3614643.5000        STREAM LEAKAGE     =          10.5108
        UZF RECHARGE     =           0.0000          UZF RECHARGE     =           0.0000
               GW ET     =      149509.9688                 GW ET     =       3.0182E-10
     SURFACE LEAKAGE     =           0.0000       SURFACE LEAKAGE     =           0.0000
    SUPPLEMENTARY WELLS  =       31277.1836      SUPPLEMENTARY WELLS  =           0.0000

               TOTAL OUT =    11400199.0000                 TOTAL OUT =          39.1588

                IN - OUT =        1530.0000                  IN - OUT =       5.7907E-03

     PERCENT DISCREPANCY =           0.01         PERCENT DISCREPANCY =           0.01






         TIME SUMMARY AT END OF TIME STEP    3 IN STRESS PERIOD    2
                    SECONDS     MINUTES      HOURS       DAYS        YEARS
                    -----------------------------------------------------------
   TIME STEP LENGTH  87600.      1460.0      24.333      1.0139     2.77588E-03
 STRESS PERIOD TIME 2.62800E+05  4380.0      73.000      3.0417     8.32763E-03
         TOTAL TIME 3.49200E+05  5820.0      97.000      4.0417     1.10655E-02
1
 
 SOLVING FOR HEAD 
                                                   Max.-Head-Change                         Max.-Flux-Residual
  Residual-Control   Outer-Iter.   Inner-Iter.     Column Row Layer    Maximum-Head-Change  Column Row Layer    Maximum-Flux-Residual          L2-NORM 
          0                 1           2             6   13     1       0.7098274536E-02       6   13    1         0.3747278506E+00      0.1699078497E+01
          0                 2           2             1   12     1       0.2527091659E-02       1   12    1         0.6573370229E-01      0.5214661449E+00
          0                 3           2             2   11     1       0.1133176587E-02       1   12    1         0.2948672367E-01      0.2133219735E+00
          0                 4           2             2   11     1       0.5083914763E-03       2   11    1         0.1322277365E-01      0.9398544519E-01
          0                 5           2             2   11     1       0.2280578741E-03       2   11    1         0.5932167206E-02      0.4191692473E-01
          0                 6           1             2   11     1       0.1022913897E-03       2   11    1         0.2661033786E-02      0.1872994646E-01
          0                 7           1             2   11     1       0.4587560242E-04       2   11    1         0.1193534042E-02      0.8372072931E-02
          0                 8           1             2   11     1       0.2057191944E-04       2   11    1         0.5352642237E-03      0.3742654735E-02
          0                 9           1             2   11     1       0.9224011241E-05       2   11    1         0.2400226614E-03      0.1673254256E-02

    ------------------------------------------------
       NWT REQUIRED            9 OUTER ITERATIONS 
       AND A TOTAL OF         14 INNER ITERATIONS.
    ------------------------------------------------

 OUTPUT CONTROL WAS SPECIFIED FOR A NONEXISTENT TIME STEP
 OR OUTPUT CONTROL DATA ARE NOT ENTERED IN ASCENDING ORDER
 OUTPUT CONTROL STRESS PERIOD    1   TIME STEP   15
 MODEL STRESS PERIOD    2   TIME STEP    4
 APPLYING THE SPECIFIED OUTPUT CONTROL TO THE CURRENT TIME STEP

 OUTPUT CONTROL FOR STRESS PERIOD    2   TIME STEP    4
    PRINT BUDGET
    PRINT HEAD FOR ALL LAYERS
    SAVE HEAD FOR ALL LAYERS
    SAVE BUDGET
 UBUDSV SAVING "         STORAGE" ON UNIT102 AT TIME STEP     4, STRESS PERIOD    2
 UBUDSV SAVING "   CONSTANT HEAD" ON UNIT102 AT TIME STEP     4, STRESS PERIOD    2
 UBUDSV SAVING "FLOW RIGHT FACE " ON UNIT102 AT TIME STEP     4, STRESS PERIOD    2
 UBUDSV SAVING "FLOW FRONT FACE " ON UNIT102 AT TIME STEP     4, STRESS PERIOD    2

  HEAD DEP BOUNDS   PERIOD    2   STEP     4
 BOUNDARY      1   LAYER   1   ROW    13   COL     1   RATE   -0.284647    
 BOUNDARY      2   LAYER   1   ROW    14   COL     9   RATE    0.285447    



 STREAM LISTING     PERIOD      2   STEP        4

 LAYER ROW COL. STREAM  RCH.  FLOW INTO     FLOW TO   FLOW OUT OF   OVRLND.     DIRECT     STREAM       STREAM     STREAM     STREAM   STREAMBED  STREAMBED
                SEG.NO.  NO.  STRM. RCH.    AQUIFER    STRM. RCH.    RUNOFF     PRECIP       ET          HEAD       DEPTH      WIDTH   CONDCTNC.   GRADIENT

   1    1    1     1     1    4.0000E+00  8.7855E-02   3.9121E+00  0.000E+00  0.000E+00  0.000E+00  1.09374E+03  6.973E-01  5.280E+00  2.376E-02  1.232E+00
   1    2    2     1     2    3.9121E+00  1.3511E-01   3.7770E+00  0.000E+00  0.000E+00  0.000E+00  1.08875E+03  6.904E-01  5.230E+00  3.661E-02  1.230E+00
   1    3    3     1     3    3.7770E+00  1.1429E-01   3.6628E+00  0.000E+00  0.000E+00  0.000E+00  1.08310E+03  6.825E-01  5.172E+00  3.103E-02  1.228E+00
   1    3    4     1     4    3.6628E+00  1.0446E-01   3.5583E+00  0.000E+00  0.000E+00  0.000E+00  1.07808E+03  6.755E-01  5.121E+00  2.842E-02  1.225E+00
   1    4    5     2     1    1.5583E+00  2.5094E-01   1.3074E+00  0.000E+00  0.000E+00  0.000E+00  1.07215E+03  2.172E-01  1.200E+01  7.800E-02  1.072E+00
   1    5    6     2     2    1.3074E+00  1.9178E-01   1.1156E+00  0.000E+00  0.000E+00  0.000E+00  1.06671E+03  1.964E-01  1.200E+01  6.000E-02  1.065E+00
   1    6    6     2     3    1.1156E+00  1.9063E-01   9.2494E-01  0.000E+00  0.000E+00  0.000E+00  1.06197E+03  1.772E-01  1.200E+01  6.000E-02  1.059E+00
   1    7    6     2     4    9.2494E-01  1.8939E-01   7.3554E-01  0.000E+00  0.000E+00  0.000E+00  1.05723E+03  1.566E-01  1.200E+01  6.000E-02  1.052E+00
   1    8    6     2     5    7.3554E-01  1.8805E-01   5.4750E-01  0.000E+00  0.000E+00  0.000E+00  1.05249E+03  1.341E-01  1.200E+01  6.000E-02  1.045E+00
   1    3    5     3     1    2.0000E+00  2.8252E-01   1.7175E+00  0.000E+00  0.000E+00  0.000E+00  1.07555E+03  1.909E+00  9.636E+00  7.227E-02  1.955E+00
   1    3    6     3     2    1.7175E+00  2.4905E-01   1.4684E+00  0.000E+00  0.000E+00  0.000E+00  1.07264E+03  1.727E+00  8.909E+00  6.682E-02  1.864E+00
   1    3    7     3     3    1.4684E+00  1.9718E-01   1.2712E+00  0.000E+00  0.000E+00  0.000E+00  1.06987E+03  1.555E+00  8.218E+00  5.547E-02  1.777E+00
   1    4    8     3     4    1.2712E+00  2.2567E-01   1.0456E+00  0.000E+00  0.000E+00  0.000E+00  1.06682E+03  1.364E+00  7.455E+00  6.709E-02  1.682E+00
   1    5    8     3     5    1.0456E+00  1.5790E-01   8.8768E-01  0.000E+00  0.000E+00  0.000E+00  1.06362E+03  1.164E+00  6.655E+00  4.991E-02  1.582E+00
   1    6    8     3     6    8.8768E-01  5.5980E-02   8.3170E-01  0.000E+00  0.000E+00  0.000E+00  1.06158E+03  1.036E+00  6.145E+00  1.844E-02  1.518E+00
   1    5   10     4     1    1.0000E+01  9.0919E-02   9.9091E+00  0.000E+00  0.000E+00  0.000E+00  1.07836E+03  6.368E-01  1.000E+01  2.500E-02  1.212E+00
   1    5    9     4     2    9.9091E+00  1.8158E-01   9.7275E+00  0.000E+00  0.000E+00  0.000E+00  1.07154E+03  6.315E-01  1.000E+01  5.000E-02  1.211E+00
   1    6    8     4     3    9.7275E+00  1.2689E-01   9.6006E+00  0.000E+00  0.000E+00  0.000E+00  1.06381E+03  6.256E-01  1.000E+01  3.500E-02  1.209E+00
   1    6    8     5     1    1.0432E+01  2.2686E-01   1.0205E+01  0.000E+00  0.000E+00  0.000E+00  1.05868E+03  6.790E-01  1.542E+01  6.166E-02  1.226E+00
   1    7    7     5     2    1.0205E+01  2.7894E-01   9.9265E+00  0.000E+00  0.000E+00  0.000E+00  1.05417E+03  6.732E-01  1.519E+01  7.594E-02  1.224E+00
   1    8    7     5     3    9.9265E+00  1.9221E-01   9.7343E+00  0.000E+00  0.000E+00  0.000E+00  1.04992E+03  6.676E-01  1.497E+01  5.241E-02  1.223E+00
   1    8    6     5     4    9.7343E+00  1.3577E-01   9.5985E+00  0.000E+00  0.000E+00  0.000E+00  1.04691E+03  6.637E-01  1.482E+01  3.706E-02  1.221E+00
   1    9    6     6     1    1.0146E+01  2.2237E-01   9.9237E+00  0.000E+00  0.000E+00  0.000E+00  1.04343E+03  7.061E-01  1.200E+01  6.000E-02  1.235E+00
   1   10    7     6     2    9.9237E+00  2.2180E-01   9.7019E+00  0.000E+00  0.000E+00  0.000E+00  1.03888E+03  6.967E-01  1.200E+01  6.000E-02  1.232E+00
   1   11    7     6     3    9.7019E+00  2.2123E-01   9.4806E+00  0.000E+00  0.000E+00  0.000E+00  1.03432E+03  6.872E-01  1.200E+01  6.000E-02  1.229E+00
   1   12    7     6     4    9.4806E+00  2.2066E-01   9.2600E+00  0.000E+00  0.000E+00  0.000E+00  1.02977E+03  6.777E-01  1.200E+01  6.000E-02  1.226E+00
   1   13    7     6     5    9.2600E+00 -8.7175E-02   9.3471E+00  0.000E+00  0.000E+00  0.000E+00  1.02658E+03  6.748E-01  1.200E+01  2.400E-01 -1.211E-01
   1   14    9     7     1    1.5000E+02  1.3312E+00   1.4867E+02  0.000E+00  0.000E+00  0.000E+00  1.03987E+03  2.288E+00  5.529E+01  5.593E-01  7.934E-01
   1   13    8     7     2    1.4867E+02  1.8505E+00   1.4682E+02  0.000E+00  0.000E+00  0.000E+00  1.03478E+03  2.279E+00  5.526E+01  6.148E-01  1.003E+00
   1   13    7     7     3    1.4682E+02  1.5315E+00   1.4529E+02  0.000E+00  0.000E+00  0.000E+00  1.02969E+03  2.270E+00  5.522E+01  5.584E-01  9.142E-01
   1   13    6     8     1    1.5463E+02  8.8594E-01   1.5375E+02  0.000E+00  0.000E+00  0.000E+00  1.02472E+03  2.846E+00  4.127E+01  4.205E-01  7.022E-01
   1   13    5     8     2    1.5375E+02  1.4423E-01   1.5360E+02  0.000E+00  0.000E+00  0.000E+00  1.01847E+03  2.843E+00  4.122E+01  4.200E-01  1.145E-01
   1   13    4     8     3    1.5360E+02 -2.5675E+00   1.5617E+02  0.000E+00  0.000E+00  0.000E+00  1.01223E+03  2.851E+00  4.134E+01  4.213E+00 -2.032E-01
   1   13    3     8     4    1.5617E+02 -3.6602E+00   1.5983E+02  0.000E+00  0.000E+00  0.000E+00  1.00600E+03  2.872E+00  4.165E+01  4.244E+00 -2.875E-01
   1   13    2     8     5    1.5983E+02 -2.4695E+00   1.6230E+02  0.000E+00  0.000E+00  0.000E+00  9.99768E+02  2.893E+00  4.195E+01  4.275E+00 -1.926E-01
   1   13    1     8     6    1.6230E+02 -1.8256E+00   1.6413E+02  0.000E+00  0.000E+00  0.000E+00  9.94782E+02  2.907E+00  4.216E+01  2.578E+00 -2.361E-01
   1    6    8     9     1    0.0000E+00  0.0000E+00   0.0000E+00  0.000E+00  0.000E+00  0.000E+00  1.07850E+03  0.000E+00  4.000E+00  0.000E+00  1.000E+00



 UBDSV3 SAVING "     NETRECHARGE" ON UNIT 100 AT TIME STEP     4, STRESS PERIOD   2
 UBDSV3 SAVING "    NETDISCHARGE" ON UNIT 101 AT TIME STEP     4, STRESS PERIOD   2
 UBDSV3 SAVING "           GW ET" ON UNIT  61 AT TIME STEP     4, STRESS PERIOD   2
 UBDSV3 SAVING "    UZF RECHARGE" ON UNIT  61 AT TIME STEP     4, STRESS PERIOD   2
 UBDSV3 SAVING " SURFACE LEAKAGE" ON UNIT  61 AT TIME STEP     4, STRESS PERIOD   2
 UBDSV3 SAVING "       HORT+DUNN" ON UNIT  61 AT TIME STEP     4, STRESS PERIOD   2
 UBDSV3 SAVING "  STORAGE CHANGE" ON UNIT  61 AT TIME STEP     4, STRESS PERIOD   2


UNSATURATED ZONE PACKAGE VOLUMETRIC BUDGET FOR  TIME STEP     4 STRESS PERIOD    2
  ------------------------------------------------------------------------------



     CUMULATIVE VOLUMES      L**3       RATES FOR THIS TIME STEP      L**3/T
     ------------------                 ------------------------

           IN:                                      IN:
           ---                                      ---
        INFILTRATION =      151807.6534          INFILTRATION =       0.0000E+00

          OUT:                                     OUT:
          ----                                     ----
              UZF ET =      101609.9526                UZF ET =           0.2900
        UZF RECHARGE =    10108754.1436          UZF RECHARGE =          28.3155

            IN - OUT =   -10058556.4428              IN - OUT =         -28.6055

          STORAGE:                                 STORAGE:
          --------                                 --------
      STORAGE CHANGE =   -10054644.5469        STORAGE CHANGE =         -28.6054

 PERCENT DISCREPANCY IS DIFFERENCE BETWEEN IN-OUT MINUS CHANGE IN STORAGE
 DIVIDED BY THE AVERAGE OF IN AND OUT TIMES 100

 PERCENT DISCREPANCY =          -0.01     PERCENT DISCREPANCY =          -0.00






1
              HEAD IN LAYER   1 AT END OF TIME STEP     4 IN STRESS PERIOD    2
  -----------------------------------------------------------------------------

           1       2       3       4       5       6       7       8       9      10
 ...................................................................................
   1  1033.25 1032.21 6999.00 6999.00 6999.00 6999.00 6999.00 6999.00 6999.00 6999.00
   2  1032.31 1031.06 1030.46 6999.00 6999.00 1031.51 1031.66 1031.61 6999.00 6999.00
   3  6999.00 1030.17 1029.83 1029.60 1030.15 1030.76 1031.23 1031.19 6999.00 6999.00
   4  1029.44 1029.41 1029.24 1029.03 1029.09 1029.13 1029.61 1030.64 1030.35 6999.00
   5  1028.99 1028.63 1028.47 1028.38 1028.45 1028.63 1028.77 1029.24 1029.86 1030.38
   6  1028.41 1027.87 1027.71 1027.69 1027.79 1028.06 1028.31 1028.82 1029.29 1030.22
   7  1027.89 1026.88 1026.75 1026.80 1026.95 1027.30 1027.69 1028.16 1028.69 6999.00
   8  6999.00 1025.43 1025.48 1025.65 1025.86 1026.30 1026.71 1027.47 1027.98 6999.00
   9  6999.00 1023.26 1023.60 1024.04 1024.42 1025.05 1025.55 1026.31 1027.38 6999.00
  10  6999.00 1020.27 1021.04 1022.07 1022.85 1023.86 1024.75 1025.82 1027.42 1028.06
  11  6999.00 1015.58 1017.00 1019.55 1021.18 1022.91 1024.44 1026.23 1028.41 6999.00
  12  1001.92 1008.00 1012.13 1016.12 1019.38 1022.36 1024.85 1028.28 1031.28 6999.00
  13   995.49 1000.35 1006.86 1012.84 1018.12 1022.61 1026.95 1031.77 1034.63 6999.00
  14  6999.00 1005.77 1008.85 1013.49 1018.21 1022.59 1027.53 1033.07 1037.49 6999.00
  15  6999.00 6999.00 1012.47 1015.18 1018.63 1021.63 6999.00 6999.00 6999.00 6999.00

 HEAD WILL BE SAVED ON UNIT   62 AT END OF TIME STEP    4, STRESS PERIOD    2
1
  VOLUMETRIC BUDGET FOR ENTIRE MODEL AT END OF TIME STEP    4, STRESS PERIOD   2
  ------------------------------------------------------------------------------

     CUMULATIVE VOLUMES      L**3       RATES FOR THIS TIME STEP      L**3/T
     ------------------                 ------------------------

           IN:                                      IN:
           ---                                      ---
             STORAGE     =           0.0000               STORAGE     =           0.0000
       CONSTANT HEAD     =           0.0000         CONSTANT HEAD     =           0.0000
               WELLS     =           0.0000                 WELLS     =           0.0000
     HEAD DEP BOUNDS     =      124793.7656       HEAD DEP BOUNDS     =           0.2854
      STREAM LEAKAGE     =     4591974.0000        STREAM LEAKAGE     =          10.4834
        UZF RECHARGE     =    10108754.0000          UZF RECHARGE     =          28.3155
               GW ET     =           0.0000                 GW ET     =           0.0000
     SURFACE LEAKAGE     =           0.0000       SURFACE LEAKAGE     =           0.0000
    SUPPLEMENTARY WELLS  =           0.0000      SUPPLEMENTARY WELLS  =           0.0000

                TOTAL IN =    14825522.0000                  TOTAL IN =          39.0844

          OUT:                                     OUT:
          ----                                     ----
             STORAGE     =     9974551.0000               STORAGE     =          28.1840
       CONSTANT HEAD     =           0.0000         CONSTANT HEAD     =           0.0000
               WELLS     =           0.0000                 WELLS     =           0.0000
     HEAD DEP BOUNDS     =      124069.2188       HEAD DEP BOUNDS     =           0.2846
      STREAM LEAKAGE     =     4544081.5000        STREAM LEAKAGE     =          10.6100
        UZF RECHARGE     =           0.0000          UZF RECHARGE     =           0.0000
               GW ET     =      149509.9688                 GW ET     =       3.0223E-10
     SURFACE LEAKAGE     =           0.0000       SURFACE LEAKAGE     =           0.0000
    SUPPLEMENTARY WELLS  =       31277.1836      SUPPLEMENTARY WELLS  =           0.0000

               TOTAL OUT =    14823489.0000                 TOTAL OUT =          39.0786

                IN - OUT =        2033.0000                  IN - OUT =       5.7564E-03

     PERCENT DISCREPANCY =           0.01         PERCENT DISCREPANCY =           0.01






         TIME SUMMARY AT END OF TIME STEP    4 IN STRESS PERIOD    2
                    SECONDS     MINUTES      HOURS       DAYS        YEARS
                    -----------------------------------------------------------
   TIME STEP LENGTH  87600.      1460.0      24.333      1.0139     2.77588E-03
 STRESS PERIOD TIME 3.50400E+05  5840.0      97.333      4.0556     1.11035E-02
         TOTAL TIME 4.36800E+05  7280.0      121.33      5.0556     1.38414E-02
1
 
 SOLVING FOR HEAD 
                                                   Max.-Head-Change                         Max.-Flux-Residual
  Residual-Control   Outer-Iter.   Inner-Iter.     Column Row Layer    Maximum-Head-Change  Column Row Layer    Maximum-Flux-Residual          L2-NORM 
          0                 1           2             6   13     1       0.6965856425E-02       6   13    1         0.3677081656E+00      0.1676421198E+01
          0                 2           2             1   12     1       0.2522444273E-02       1   12    1         0.6561778128E-01      0.5178693340E+00
          0                 3           2             2   11     1       0.1131450779E-02       1   12    1         0.2943200023E-01      0.2122716145E+00
          0                 4           2             2   11     1       0.5075652146E-03       2   11    1         0.1320238175E-01      0.9355587401E-01
          0                 5           2             2   11     1       0.2276647264E-03       2   11    1         0.5922416135E-02      0.4172970862E-01
          0                 6           1             2   11     1       0.1021053134E-03       2   11    1         0.2656398908E-02      0.1864761536E-01
          0                 7           1             2   11     1       0.4578793675E-04       2   11    1         0.1191342333E-02      0.8335819434E-02
          0                 8           1             2   11     1       0.2053078305E-04       2   11    1         0.5342324528E-03      0.3726685251E-02
          0                 9           1             2   11     1       0.9204776576E-05       2   11    1         0.2395388488E-03      0.1666215524E-02

    ------------------------------------------------
       NWT REQUIRED            9 OUTER ITERATIONS 
       AND A TOTAL OF         14 INNER ITERATIONS.
    ------------------------------------------------

 OUTPUT CONTROL WAS SPECIFIED FOR A NONEXISTENT TIME STEP
 OR OUTPUT CONTROL DATA ARE NOT ENTERED IN ASCENDING ORDER
 OUTPUT CONTROL STRESS PERIOD    2   TIME STEP    1
 MODEL STRESS PERIOD    2   TIME STEP    5
 APPLYING THE SPECIFIED OUTPUT CONTROL TO THE CURRENT TIME STEP

 OUTPUT CONTROL FOR STRESS PERIOD    2   TIME STEP    5
    PRINT BUDGET
    SAVE BUDGET
 UBUDSV SAVING "         STORAGE" ON UNIT102 AT TIME STEP     5, STRESS PERIOD    2
 UBUDSV SAVING "   CONSTANT HEAD" ON UNIT102 AT TIME STEP     5, STRESS PERIOD    2
 UBUDSV SAVING "FLOW RIGHT FACE " ON UNIT102 AT TIME STEP     5, STRESS PERIOD    2
 UBUDSV SAVING "FLOW FRONT FACE " ON UNIT102 AT TIME STEP     5, STRESS PERIOD    2

  HEAD DEP BOUNDS   PERIOD    2   STEP     5
 BOUNDARY      1   LAYER   1   ROW    13   COL     1   RATE   -0.284918    
 BOUNDARY      2   LAYER   1   ROW    14   COL     9   RATE    0.285322    



 STREAM LISTING     PERIOD      2   STEP        5

 LAYER ROW COL. STREAM  RCH.  FLOW INTO     FLOW TO   FLOW OUT OF   OVRLND.     DIRECT     STREAM       STREAM     STREAM     STREAM   STREAMBED  STREAMBED
                SEG.NO.  NO.  STRM. RCH.    AQUIFER    STRM. RCH.    RUNOFF     PRECIP       ET          HEAD       DEPTH      WIDTH   CONDCTNC.   GRADIENT

   1    1    1     1     1    4.0000E+00  8.7855E-02   3.9121E+00  0.000E+00  0.000E+00  0.000E+00  1.09374E+03  6.973E-01  5.280E+00  2.376E-02  1.232E+00
   1    2    2     1     2    3.9121E+00  1.3511E-01   3.7770E+00  0.000E+00  0.000E+00  0.000E+00  1.08875E+03  6.904E-01  5.230E+00  3.661E-02  1.230E+00
   1    3    3     1     3    3.7770E+00  1.1429E-01   3.6628E+00  0.000E+00  0.000E+00  0.000E+00  1.08310E+03  6.825E-01  5.172E+00  3.103E-02  1.228E+00
   1    3    4     1     4    3.6628E+00  1.0446E-01   3.5583E+00  0.000E+00  0.000E+00  0.000E+00  1.07808E+03  6.755E-01  5.121E+00  2.842E-02  1.225E+00
   1    4    5     2     1    1.5583E+00  2.5094E-01   1.3074E+00  0.000E+00  0.000E+00  0.000E+00  1.07215E+03  2.172E-01  1.200E+01  7.800E-02  1.072E+00
   1    5    6     2     2    1.3074E+00  1.9178E-01   1.1156E+00  0.000E+00  0.000E+00  0.000E+00  1.06671E+03  1.964E-01  1.200E+01  6.000E-02  1.065E+00
   1    6    6     2     3    1.1156E+00  1.9063E-01   9.2494E-01  0.000E+00  0.000E+00  0.000E+00  1.06197E+03  1.772E-01  1.200E+01  6.000E-02  1.059E+00
   1    7    6     2     4    9.2494E-01  1.8939E-01   7.3554E-01  0.000E+00  0.000E+00  0.000E+00  1.05723E+03  1.566E-01  1.200E+01  6.000E-02  1.052E+00
   1    8    6     2     5    7.3554E-01  1.8805E-01   5.4750E-01  0.000E+00  0.000E+00  0.000E+00  1.05249E+03  1.341E-01  1.200E+01  6.000E-02  1.045E+00
   1    3    5     3     1    2.0000E+00  2.8252E-01   1.7175E+00  0.000E+00  0.000E+00  0.000E+00  1.07555E+03  1.909E+00  9.636E+00  7.227E-02  1.955E+00
   1    3    6     3     2    1.7175E+00  2.4905E-01   1.4684E+00  0.000E+00  0.000E+00  0.000E+00  1.07264E+03  1.727E+00  8.909E+00  6.682E-02  1.864E+00
   1    3    7     3     3    1.4684E+00  1.9718E-01   1.2712E+00  0.000E+00  0.000E+00  0.000E+00  1.06987E+03  1.555E+00  8.218E+00  5.547E-02  1.777E+00
   1    4    8     3     4    1.2712E+00  2.2567E-01   1.0456E+00  0.000E+00  0.000E+00  0.000E+00  1.06682E+03  1.364E+00  7.455E+00  6.709E-02  1.682E+00
   1    5    8     3     5    1.0456E+00  1.5790E-01   8.8768E-01  0.000E+00  0.000E+00  0.000E+00  1.06362E+03  1.164E+00  6.655E+00  4.991E-02  1.582E+00
   1    6    8     3     6    8.8768E-01  5.5980E-02   8.3170E-01  0.000E+00  0.000E+00  0.000E+00  1.06158E+03  1.036E+00  6.145E+00  1.844E-02  1.518E+00
   1    5   10     4     1    1.0000E+01  9.0919E-02   9.9091E+00  0.000E+00  0.000E+00  0.000E+00  1.07836E+03  6.368E-01  1.000E+01  2.500E-02  1.212E+00
   1    5    9     4     2    9.9091E+00  1.8158E-01   9.7275E+00  0.000E+00  0.000E+00  0.000E+00  1.07154E+03  6.315E-01  1.000E+01  5.000E-02  1.211E+00
   1    6    8     4     3    9.7275E+00  1.2689E-01   9.6006E+00  0.000E+00  0.000E+00  0.000E+00  1.06381E+03  6.256E-01  1.000E+01  3.500E-02  1.209E+00
   1    6    8     5     1    1.0432E+01  2.2686E-01   1.0205E+01  0.000E+00  0.000E+00  0.000E+00  1.05868E+03  6.790E-01  1.542E+01  6.166E-02  1.226E+00
   1    7    7     5     2    1.0205E+01  2.7894E-01   9.9265E+00  0.000E+00  0.000E+00  0.000E+00  1.05417E+03  6.732E-01  1.519E+01  7.594E-02  1.224E+00
   1    8    7     5     3    9.9265E+00  1.9221E-01   9.7343E+00  0.000E+00  0.000E+00  0.000E+00  1.04992E+03  6.676E-01  1.497E+01  5.241E-02  1.223E+00
   1    8    6     5     4    9.7343E+00  1.3577E-01   9.5985E+00  0.000E+00  0.000E+00  0.000E+00  1.04691E+03  6.637E-01  1.482E+01  3.706E-02  1.221E+00
   1    9    6     6     1    1.0146E+01  2.2237E-01   9.9237E+00  0.000E+00  0.000E+00  0.000E+00  1.04343E+03  7.061E-01  1.200E+01  6.000E-02  1.235E+00
   1   10    7     6     2    9.9237E+00  2.2180E-01   9.7019E+00  0.000E+00  0.000E+00  0.000E+00  1.03888E+03  6.967E-01  1.200E+01  6.000E-02  1.232E+00
   1   11    7     6     3    9.7019E+00  2.2123E-01   9.4806E+00  0.000E+00  0.000E+00  0.000E+00  1.03432E+03  6.872E-01  1.200E+01  6.000E-02  1.229E+00
   1   12    7     6     4    9.4806E+00  2.2066E-01   9.2600E+00  0.000E+00  0.000E+00  0.000E+00  1.02977E+03  6.777E-01  1.200E+01  6.000E-02  1.226E+00
   1   13    7     6     5    9.2600E+00 -8.8998E-02   9.3490E+00  0.000E+00  0.000E+00  0.000E+00  1.02658E+03  6.748E-01  1.200E+01  2.400E-01 -1.236E-01
   1   14    9     7     1    1.5000E+02  1.3294E+00   1.4867E+02  0.000E+00  0.000E+00  0.000E+00  1.03987E+03  2.288E+00  5.529E+01  5.593E-01  7.923E-01
   1   13    8     7     2    1.4867E+02  1.8483E+00   1.4682E+02  0.000E+00  0.000E+00  0.000E+00  1.03478E+03  2.279E+00  5.526E+01  6.148E-01  1.002E+00
   1   13    7     7     3    1.4682E+02  1.5273E+00   1.4530E+02  0.000E+00  0.000E+00  0.000E+00  1.02969E+03  2.270E+00  5.522E+01  5.584E-01  9.116E-01
   1   13    6     8     1    1.5464E+02  8.8247E-01   1.5376E+02  0.000E+00  0.000E+00  0.000E+00  1.02472E+03  2.846E+00  4.127E+01  4.206E-01  6.995E-01
   1   13    5     8     2    1.5376E+02  1.4083E-01   1.5362E+02  0.000E+00  0.000E+00  0.000E+00  1.01847E+03  2.843E+00  4.122E+01  4.200E-01  1.118E-01
   1   13    4     8     3    1.5362E+02 -2.5916E+00   1.5621E+02  0.000E+00  0.000E+00  0.000E+00  1.01223E+03  2.851E+00  4.134E+01  4.213E+00 -2.051E-01
   1   13    3     8     4    1.5621E+02 -3.6840E+00   1.5990E+02  0.000E+00  0.000E+00  0.000E+00  1.00600E+03  2.873E+00  4.165E+01  4.245E+00 -2.893E-01
   1   13    2     8     5    1.5990E+02 -2.4940E+00   1.6239E+02  0.000E+00  0.000E+00  0.000E+00  9.99769E+02  2.894E+00  4.196E+01  4.276E+00 -1.944E-01
   1   13    1     8     6    1.6239E+02 -1.8427E+00   1.6423E+02  0.000E+00  0.000E+00  0.000E+00  9.94783E+02  2.908E+00  4.217E+01  2.578E+00 -2.382E-01
   1    6    8     9     1    0.0000E+00  0.0000E+00   0.0000E+00  0.000E+00  0.000E+00  0.000E+00  1.07850E+03  0.000E+00  4.000E+00  0.000E+00  1.000E+00



 UBDSV3 SAVING "     NETRECHARGE" ON UNIT 100 AT TIME STEP     5, STRESS PERIOD   2
 UBDSV3 SAVING "    NETDISCHARGE" ON UNIT 101 AT TIME STEP     5, STRESS PERIOD   2
 UBDSV3 SAVING "           GW ET" ON UNIT  61 AT TIME STEP     5, STRESS PERIOD   2
 UBDSV3 SAVING "    UZF RECHARGE" ON UNIT  61 AT TIME STEP     5, STRESS PERIOD   2
 UBDSV3 SAVING " SURFACE LEAKAGE" ON UNIT  61 AT TIME STEP     5, STRESS PERIOD   2
 UBDSV3 SAVING "       HORT+DUNN" ON UNIT  61 AT TIME STEP     5, STRESS PERIOD   2
 UBDSV3 SAVING "  STORAGE CHANGE" ON UNIT  61 AT TIME STEP     5, STRESS PERIOD   2


UNSATURATED ZONE PACKAGE VOLUMETRIC BUDGET FOR  TIME STEP     5 STRESS PERIOD    2
  ------------------------------------------------------------------------------



     CUMULATIVE VOLUMES      L**3       RATES FOR THIS TIME STEP      L**3/T
     ------------------                 ------------------------

           IN:                                      IN:
           ---                                      ---
        INFILTRATION =      151807.6534          INFILTRATION =       0.0000E+00

          OUT:                                     OUT:
          ----                                     ----
              UZF ET =      127013.9526                UZF ET =           0.2900
        UZF RECHARGE =    12583793.5557          UZF RECHARGE =          28.2539

            IN - OUT =   -12558999.8549              IN - OUT =         -28.5439

          STORAGE:                                 STORAGE:
          --------                                 --------
      STORAGE CHANGE =   -12555078.1383        STORAGE CHANGE =         -28.5438

 PERCENT DISCREPANCY IS DIFFERENCE BETWEEN IN-OUT MINUS CHANGE IN STORAGE
 DIVIDED BY THE AVERAGE OF IN AND OUT TIMES 100

 PERCENT DISCREPANCY =          -0.01     PERCENT DISCREPANCY =          -0.00






1
  VOLUMETRIC BUDGET FOR ENTIRE MODEL AT END OF TIME STEP    5, STRESS PERIOD   2
  ------------------------------------------------------------------------------

     CUMULATIVE VOLUMES      L**3       RATES FOR THIS TIME STEP      L**3/T
     ------------------                 ------------------------

           IN:                                      IN:
           ---                                      ---
             STORAGE     =           0.0000               STORAGE     =           0.0000
       CONSTANT HEAD     =           0.0000         CONSTANT HEAD     =           0.0000
               WELLS     =           0.0000                 WELLS     =           0.0000
     HEAD DEP BOUNDS     =      149787.9844       HEAD DEP BOUNDS     =           0.2853
      STREAM LEAKAGE     =     5508995.0000        STREAM LEAKAGE     =          10.4683
        UZF RECHARGE     =    12583793.0000          UZF RECHARGE     =          28.2539
               GW ET     =           0.0000                 GW ET     =           0.0000
     SURFACE LEAKAGE     =           0.0000       SURFACE LEAKAGE     =           0.0000
    SUPPLEMENTARY WELLS  =           0.0000      SUPPLEMENTARY WELLS  =           0.0000

                TOTAL IN =    18242576.0000                  TOTAL IN =          39.0075

          OUT:                                     OUT:
          ----                                     ----
             STORAGE     =    12428704.0000               STORAGE     =          28.0154
       CONSTANT HEAD     =           0.0000         CONSTANT HEAD     =           0.0000
               WELLS     =           0.0000                 WELLS     =           0.0000
     HEAD DEP BOUNDS     =      149028.0312       HEAD DEP BOUNDS     =           0.2849
      STREAM LEAKAGE     =     5481521.5000        STREAM LEAKAGE     =          10.7014
        UZF RECHARGE     =           0.0000          UZF RECHARGE     =           0.0000
               GW ET     =      149509.9688                 GW ET     =       3.0260E-10
     SURFACE LEAKAGE     =           0.0000       SURFACE LEAKAGE     =           0.0000
    SUPPLEMENTARY WELLS  =       31277.1836      SUPPLEMENTARY WELLS  =           0.0000

               TOTAL OUT =    18240042.0000                 TOTAL OUT =          39.0017

                IN - OUT =        2534.0000                  IN - OUT =       5.7335E-03

     PERCENT DISCREPANCY =           0.01         PERCENT DISCREPANCY =           0.01






         TIME SUMMARY AT END OF TIME STEP    5 IN STRESS PERIOD    2
                    SECONDS     MINUTES      HOURS       DAYS        YEARS
                    -----------------------------------------------------------
   TIME STEP LENGTH  87600.      1460.0      24.333      1.0139     2.77588E-03
 STRESS PERIOD TIME 4.38000E+05  7300.0      121.67      5.0694     1.38794E-02
         TOTAL TIME 5.24400E+05  8740.0      145.67      6.0694     1.66172E-02
1
 
 SOLVING FOR HEAD 
                                                   Max.-Head-Change                         Max.-Flux-Residual
  Residual-Control   Outer-Iter.   Inner-Iter.     Column Row Layer    Maximum-Head-Change  Column Row Layer    Maximum-Flux-Residual          L2-NORM 
          0                 1           2             6   13     1       0.6836677331E-02       6   13    1         0.3608601378E+00      0.1656635842E+01
          0                 2           2             2   11     1       0.2517862905E-02       1   12    1         0.6548779122E-01      0.5145529352E+00
          0                 3           2             2   11     1       0.1129527191E-02       2   11    1         0.2937985221E-01      0.2112574024E+00
          0                 4           2             2   11     1       0.5066532906E-03       2   11    1         0.1317969701E-01      0.9313671255E-01
          0                 5           2             2   11     1       0.2272344783E-03       2   11    1         0.5911671989E-02      0.4154667935E-01
          0                 6           1             2   11     1       0.1019031702E-03       2   11    1         0.2651333940E-02      0.1856707812E-01
          0                 7           1             2   11     1       0.4569331361E-04       2   11    1         0.1188964371E-02      0.8300339434E-02
          0                 8           1             2   11     1       0.2048663433E-04       2   11    1         0.5331200310E-03      0.3711048699E-02
          0                 9           1             2   11     1       0.9184237707E-05       2   11    1         0.2390201117E-03      0.1659323559E-02

    ------------------------------------------------
       NWT REQUIRED            9 OUTER ITERATIONS 
       AND A TOTAL OF         14 INNER ITERATIONS.
    ------------------------------------------------

 OUTPUT CONTROL WAS SPECIFIED FOR A NONEXISTENT TIME STEP
 OR OUTPUT CONTROL DATA ARE NOT ENTERED IN ASCENDING ORDER
 OUTPUT CONTROL STRESS PERIOD    2   TIME STEP    5
 MODEL STRESS PERIOD    2   TIME STEP    6
 APPLYING THE SPECIFIED OUTPUT CONTROL TO THE CURRENT TIME STEP

 OUTPUT CONTROL FOR STRESS PERIOD    2   TIME STEP    6
    PRINT BUDGET
    SAVE BUDGET
 UBUDSV SAVING "         STORAGE" ON UNIT102 AT TIME STEP     6, STRESS PERIOD    2
 UBUDSV SAVING "   CONSTANT HEAD" ON UNIT102 AT TIME STEP     6, STRESS PERIOD    2
 UBUDSV SAVING "FLOW RIGHT FACE " ON UNIT102 AT TIME STEP     6, STRESS PERIOD    2
 UBUDSV SAVING "FLOW FRONT FACE " ON UNIT102 AT TIME STEP     6, STRESS PERIOD    2

  HEAD DEP BOUNDS   PERIOD    2   STEP     6
 BOUNDARY      1   LAYER   1   ROW    13   COL     1   RATE   -0.285174    
 BOUNDARY      2   LAYER   1   ROW    14   COL     9   RATE    0.285198    



 STREAM LISTING     PERIOD      2   STEP        6

 LAYER ROW COL. STREAM  RCH.  FLOW INTO     FLOW TO   FLOW OUT OF   OVRLND.     DIRECT     STREAM       STREAM     STREAM     STREAM   STREAMBED  STREAMBED
                SEG.NO.  NO.  STRM. RCH.    AQUIFER    STRM. RCH.    RUNOFF     PRECIP       ET          HEAD       DEPTH      WIDTH   CONDCTNC.   GRADIENT

   1    1    1     1     1    4.0000E+00  8.7855E-02   3.9121E+00  0.000E+00  0.000E+00  0.000E+00  1.09374E+03  6.973E-01  5.280E+00  2.376E-02  1.232E+00
   1    2    2     1     2    3.9121E+00  1.3511E-01   3.7770E+00  0.000E+00  0.000E+00  0.000E+00  1.08875E+03  6.904E-01  5.230E+00  3.661E-02  1.230E+00
   1    3    3     1     3    3.7770E+00  1.1429E-01   3.6628E+00  0.000E+00  0.000E+00  0.000E+00  1.08310E+03  6.825E-01  5.172E+00  3.103E-02  1.228E+00
   1    3    4     1     4    3.6628E+00  1.0446E-01   3.5583E+00  0.000E+00  0.000E+00  0.000E+00  1.07808E+03  6.755E-01  5.121E+00  2.842E-02  1.225E+00
   1    4    5     2     1    1.5583E+00  2.5094E-01   1.3074E+00  0.000E+00  0.000E+00  0.000E+00  1.07215E+03  2.172E-01  1.200E+01  7.800E-02  1.072E+00
   1    5    6     2     2    1.3074E+00  1.9178E-01   1.1156E+00  0.000E+00  0.000E+00  0.000E+00  1.06671E+03  1.964E-01  1.200E+01  6.000E-02  1.065E+00
   1    6    6     2     3    1.1156E+00  1.9063E-01   9.2494E-01  0.000E+00  0.000E+00  0.000E+00  1.06197E+03  1.772E-01  1.200E+01  6.000E-02  1.059E+00
   1    7    6     2     4    9.2494E-01  1.8939E-01   7.3554E-01  0.000E+00  0.000E+00  0.000E+00  1.05723E+03  1.566E-01  1.200E+01  6.000E-02  1.052E+00
   1    8    6     2     5    7.3554E-01  1.8805E-01   5.4750E-01  0.000E+00  0.000E+00  0.000E+00  1.05249E+03  1.341E-01  1.200E+01  6.000E-02  1.045E+00
   1    3    5     3     1    2.0000E+00  2.8252E-01   1.7175E+00  0.000E+00  0.000E+00  0.000E+00  1.07555E+03  1.909E+00  9.636E+00  7.227E-02  1.955E+00
   1    3    6     3     2    1.7175E+00  2.4905E-01   1.4684E+00  0.000E+00  0.000E+00  0.000E+00  1.07264E+03  1.727E+00  8.909E+00  6.682E-02  1.864E+00
   1    3    7     3     3    1.4684E+00  1.9718E-01   1.2712E+00  0.000E+00  0.000E+00  0.000E+00  1.06987E+03  1.555E+00  8.218E+00  5.547E-02  1.777E+00
   1    4    8     3     4    1.2712E+00  2.2567E-01   1.0456E+00  0.000E+00  0.000E+00  0.000E+00  1.06682E+03  1.364E+00  7.455E+00  6.709E-02  1.682E+00
   1    5    8     3     5    1.0456E+00  1.5790E-01   8.8768E-01  0.000E+00  0.000E+00  0.000E+00  1.06362E+03  1.164E+00  6.655E+00  4.991E-02  1.582E+00
   1    6    8     3     6    8.8768E-01  5.5980E-02   8.3170E-01  0.000E+00  0.000E+00  0.000E+00  1.06158E+03  1.036E+00  6.145E+00  1.844E-02  1.518E+00
   1    5   10     4     1    1.0000E+01  9.0919E-02   9.9091E+00  0.000E+00  0.000E+00  0.000E+00  1.07836E+03  6.368E-01  1.000E+01  2.500E-02  1.212E+00
   1    5    9     4     2    9.9091E+00  1.8158E-01   9.7275E+00  0.000E+00  0.000E+00  0.000E+00  1.07154E+03  6.315E-01  1.000E+01  5.000E-02  1.211E+00
   1    6    8     4     3    9.7275E+00  1.2689E-01   9.6006E+00  0.000E+00  0.000E+00  0.000E+00  1.06381E+03  6.256E-01  1.000E+01  3.500E-02  1.209E+00
   1    6    8     5     1    1.0432E+01  2.2686E-01   1.0205E+01  0.000E+00  0.000E+00  0.000E+00  1.05868E+03  6.790E-01  1.542E+01  6.166E-02  1.226E+00
   1    7    7     5     2    1.0205E+01  2.7894E-01   9.9265E+00  0.000E+00  0.000E+00  0.000E+00  1.05417E+03  6.732E-01  1.519E+01  7.594E-02  1.224E+00
   1    8    7     5     3    9.9265E+00  1.9221E-01   9.7343E+00  0.000E+00  0.000E+00  0.000E+00  1.04992E+03  6.676E-01  1.497E+01  5.241E-02  1.223E+00
   1    8    6     5     4    9.7343E+00  1.3577E-01   9.5985E+00  0.000E+00  0.000E+00  0.000E+00  1.04691E+03  6.637E-01  1.482E+01  3.706E-02  1.221E+00
   1    9    6     6     1    1.0146E+01  2.2237E-01   9.9237E+00  0.000E+00  0.000E+00  0.000E+00  1.04343E+03  7.061E-01  1.200E+01  6.000E-02  1.235E+00
   1   10    7     6     2    9.9237E+00  2.2180E-01   9.7019E+00  0.000E+00  0.000E+00  0.000E+00  1.03888E+03  6.967E-01  1.200E+01  6.000E-02  1.232E+00
   1   11    7     6     3    9.7019E+00  2.2123E-01   9.4806E+00  0.000E+00  0.000E+00  0.000E+00  1.03432E+03  6.872E-01  1.200E+01  6.000E-02  1.229E+00
   1   12    7     6     4    9.4806E+00  2.2066E-01   9.2600E+00  0.000E+00  0.000E+00  0.000E+00  1.02977E+03  6.777E-01  1.200E+01  6.000E-02  1.226E+00
   1   13    7     6     5    9.2600E+00 -9.0771E-02   9.3507E+00  0.000E+00  0.000E+00  0.000E+00  1.02658E+03  6.749E-01  1.200E+01  2.400E-01 -1.261E-01
   1   14    9     7     1    1.5000E+02  1.3276E+00   1.4867E+02  0.000E+00  0.000E+00  0.000E+00  1.03987E+03  2.288E+00  5.529E+01  5.593E-01  7.912E-01
   1   13    8     7     2    1.4867E+02  1.8460E+00   1.4683E+02  0.000E+00  0.000E+00  0.000E+00  1.03478E+03  2.279E+00  5.526E+01  6.148E-01  1.001E+00
   1   13    7     7     3    1.4683E+02  1.5232E+00   1.4530E+02  0.000E+00  0.000E+00  0.000E+00  1.02969E+03  2.270E+00  5.522E+01  5.584E-01  9.092E-01
   1   13    6     8     1    1.5465E+02  8.7905E-01   1.5377E+02  0.000E+00  0.000E+00  0.000E+00  1.02472E+03  2.846E+00  4.127E+01  4.206E-01  6.967E-01
   1   13    5     8     2    1.5377E+02  1.3752E-01   1.5364E+02  0.000E+00  0.000E+00  0.000E+00  1.01847E+03  2.843E+00  4.122E+01  4.200E-01  1.091E-01
   1   13    4     8     3    1.5364E+02 -2.6137E+00   1.5625E+02  0.000E+00  0.000E+00  0.000E+00  1.01223E+03  2.851E+00  4.134E+01  4.213E+00 -2.068E-01
   1   13    3     8     4    1.5625E+02 -3.7056E+00   1.5996E+02  0.000E+00  0.000E+00  0.000E+00  1.00600E+03  2.873E+00  4.166E+01  4.245E+00 -2.910E-01
   1   13    2     8     5    1.5996E+02 -2.5166E+00   1.6247E+02  0.000E+00  0.000E+00  0.000E+00  9.99769E+02  2.894E+00  4.196E+01  4.276E+00 -1.962E-01
   1   13    1     8     6    1.6247E+02 -1.8590E+00   1.6433E+02  0.000E+00  0.000E+00  0.000E+00  9.94784E+02  2.909E+00  4.218E+01  2.579E+00 -2.403E-01
   1    6    8     9     1    0.0000E+00  0.0000E+00   0.0000E+00  0.000E+00  0.000E+00  0.000E+00  1.07850E+03  0.000E+00  4.000E+00  0.000E+00  1.000E+00



 UBDSV3 SAVING "     NETRECHARGE" ON UNIT 100 AT TIME STEP     6, STRESS PERIOD   2
 UBDSV3 SAVING "    NETDISCHARGE" ON UNIT 101 AT TIME STEP     6, STRESS PERIOD   2
 UBDSV3 SAVING "           GW ET" ON UNIT  61 AT TIME STEP     6, STRESS PERIOD   2
 UBDSV3 SAVING "    UZF RECHARGE" ON UNIT  61 AT TIME STEP     6, STRESS PERIOD   2
 UBDSV3 SAVING " SURFACE LEAKAGE" ON UNIT  61 AT TIME STEP     6, STRESS PERIOD   2
 UBDSV3 SAVING "       HORT+DUNN" ON UNIT  61 AT TIME STEP     6, STRESS PERIOD   2
 UBDSV3 SAVING "  STORAGE CHANGE" ON UNIT  61 AT TIME STEP     6, STRESS PERIOD   2


UNSATURATED ZONE PACKAGE VOLUMETRIC BUDGET FOR  TIME STEP     6 STRESS PERIOD    2
  ------------------------------------------------------------------------------



     CUMULATIVE VOLUMES      L**3       RATES FOR THIS TIME STEP      L**3/T
     ------------------                 ------------------------

           IN:                                      IN:
           ---                                      ---
        INFILTRATION =      151807.6534          INFILTRATION =       0.0000E+00

          OUT:                                     OUT:
          ----                                     ----
              UZF ET =      152417.9526                UZF ET =           0.2900
        UZF RECHARGE =    15053679.0420          UZF RECHARGE =          28.1950

            IN - OUT =   -15054289.3412              IN - OUT =         -28.4850

          STORAGE:                                 STORAGE:
          --------                                 --------
      STORAGE CHANGE =   -15050357.9179        STORAGE CHANGE =         -28.4849

 PERCENT DISCREPANCY IS DIFFERENCE BETWEEN IN-OUT MINUS CHANGE IN STORAGE
 DIVIDED BY THE AVERAGE OF IN AND OUT TIMES 100

 PERCENT DISCREPANCY =          -0.01     PERCENT DISCREPANCY =          -0.00






1
  VOLUMETRIC BUDGET FOR ENTIRE MODEL AT END OF TIME STEP    6, STRESS PERIOD   2
  ------------------------------------------------------------------------------

     CUMULATIVE VOLUMES      L**3       RATES FOR THIS TIME STEP      L**3/T
     ------------------                 ------------------------

           IN:                                      IN:
           ---                                      ---
             STORAGE     =           0.0000               STORAGE     =           0.0000
       CONSTANT HEAD     =           0.0000         CONSTANT HEAD     =           0.0000
               WELLS     =           0.0000                 WELLS     =           0.0000
     HEAD DEP BOUNDS     =      174771.3438       HEAD DEP BOUNDS     =           0.2852
      STREAM LEAKAGE     =     6424710.5000        STREAM LEAKAGE     =          10.4534
        UZF RECHARGE     =    15053678.0000          UZF RECHARGE     =          28.1950
               GW ET     =           0.0000                 GW ET     =           0.0000
     SURFACE LEAKAGE     =           0.0000       SURFACE LEAKAGE     =           0.0000
    SUPPLEMENTARY WELLS  =           0.0000      SUPPLEMENTARY WELLS  =           0.0000

                TOTAL IN =    21653160.0000                  TOTAL IN =          38.9336

          OUT:                                     OUT:
          ----                                     ----
             STORAGE     =    14868990.0000               STORAGE     =          27.8571
       CONSTANT HEAD     =           0.0000         CONSTANT HEAD     =           0.0000
               WELLS     =           0.0000                 WELLS     =           0.0000
     HEAD DEP BOUNDS     =      174009.2812       HEAD DEP BOUNDS     =           0.2852
      STREAM LEAKAGE     =     6426338.0000        STREAM LEAKAGE     =          10.7856
        UZF RECHARGE     =           0.0000          UZF RECHARGE     =           0.0000
               GW ET     =      149509.9688                 GW ET     =       3.0288E-10
     SURFACE LEAKAGE     =           0.0000       SURFACE LEAKAGE     =           0.0000
    SUPPLEMENTARY WELLS  =       31277.1836      SUPPLEMENTARY WELLS  =           0.0000

               TOTAL OUT =    21650124.0000                 TOTAL OUT =          38.9279

                IN - OUT =        3036.0000                  IN - OUT =       5.7030E-03

     PERCENT DISCREPANCY =           0.01         PERCENT DISCREPANCY =           0.01






         TIME SUMMARY AT END OF TIME STEP    6 IN STRESS PERIOD    2
                    SECONDS     MINUTES      HOURS       DAYS        YEARS
                    -----------------------------------------------------------
   TIME STEP LENGTH  87600.      1460.0      24.333      1.0139     2.77588E-03
 STRESS PERIOD TIME 5.25600E+05  8760.0      146.00      6.0833     1.66553E-02
         TOTAL TIME 6.12000E+05  10200.      170.00      7.0833     1.93931E-02
1
 
 SOLVING FOR HEAD 
                                                   Max.-Head-Change                         Max.-Flux-Residual
  Residual-Control   Outer-Iter.   Inner-Iter.     Column Row Layer    Maximum-Head-Change  Column Row Layer    Maximum-Flux-Residual          L2-NORM 
          0                 1           2             6   13     1       0.6710964713E-02       6   13    1         0.3541959404E+00      0.1639311003E+01
          0                 2           2             2   11     1       0.2513399192E-02       2   11    1         0.6537465890E-01      0.5114788255E+00
          0                 3           2             2   11     1       0.1127418150E-02       2   11    1         0.2932724665E-01      0.2102761795E+00
          0                 4           2             2   11     1       0.5056611378E-03       2   11    1         0.1315486280E-01      0.9272722015E-01
          0                 5           2             2   11     1       0.2267695263E-03       2   11    1         0.5899997975E-02      0.4136757496E-01
          0                 6           1             2   11     1       0.1016860164E-03       2   11    1         0.2645866748E-02      0.1848821317E-01
          0                 7           1             2   11     1       0.4559219810E-04       2   11    1         0.1186412430E-02      0.8265581609E-02
          0                 8           1             2   11     1       0.2043967760E-04       2   11    1         0.5319323612E-03      0.3695723981E-02
          0                 9           1             2   11     1       0.9162484549E-05       2   11    1         0.2384688344E-03      0.1652564932E-02

    ------------------------------------------------
       NWT REQUIRED            9 OUTER ITERATIONS 
       AND A TOTAL OF         14 INNER ITERATIONS.
    ------------------------------------------------

 NO OUTPUT CONTROL FOR STRESS PERIOD    2   TIME STEP    7
 
 SOLVING FOR HEAD 
                                                   Max.-Head-Change                         Max.-Flux-Residual
  Residual-Control   Outer-Iter.   Inner-Iter.     Column Row Layer    Maximum-Head-Change  Column Row Layer    Maximum-Flux-Residual          L2-NORM 
          0                 1           2             6   13     1       0.6588300802E-02       6   13    1         0.3476929941E+00      0.1624050939E+01
          0                 2           2             2   11     1       0.2508629448E-02       2   11    1         0.6525553090E-01      0.5086090881E+00
          0                 3           2             2   11     1       0.1125177522E-02       2   11    1         0.2927109800E-01      0.2093235191E+00
          0                 4           2             2   11     1       0.5046124245E-03       2   11    1         0.1312850522E-01      0.9232632675E-01
          0                 5           2             2   11     1       0.2262802710E-03       2   11    1         0.5887669223E-02      0.4119193858E-01
          0                 6           1             2   11     1       0.1014584249E-03       2   11    1         0.2640118249E-02      0.1841086008E-01
          0                 7           1             2   11     1       0.4548660234E-04       2   11    1         0.1183739687E-02      0.8231472833E-02
          0                 8           1             2   11     1       0.2039079890E-04       2   11    1         0.5306928468E-03      0.3680678880E-02
          0                 9           1             2   11     1       0.9139907526E-05       2   11    1         0.2378953131E-03      0.1645928037E-02

    ------------------------------------------------
       NWT REQUIRED            9 OUTER ITERATIONS 
       AND A TOTAL OF         14 INNER ITERATIONS.
    ------------------------------------------------

 NO OUTPUT CONTROL FOR STRESS PERIOD    2   TIME STEP    8
 
 SOLVING FOR HEAD 
                                                   Max.-Head-Change                         Max.-Flux-Residual
  Residual-Control   Outer-Iter.   Inner-Iter.     Column Row Layer    Maximum-Head-Change  Column Row Layer    Maximum-Flux-Residual          L2-NORM 
          0                 1           2             6   13     1       0.6468933081E-02       6   13    1         0.3413645599E+00      0.1610564935E+01
          0                 2           2             2   11     1       0.2503479372E-02       2   11    1         0.6512620743E-01      0.5059194774E+00
          0                 3           2             2   11     1       0.1122772487E-02       2   11    1         0.2921054179E-01      0.2083980909E+00
          0                 4           2             2   11     1       0.5034926508E-03       2   11    1         0.1310024241E-01      0.9193404641E-01
          0                 5           2             2   11     1       0.2257603061E-03       2   11    1         0.5874516991E-02      0.4101985294E-01
          0                 6           1             2   11     1       0.1012175629E-03       2   11    1         0.2634013874E-02      0.1833500532E-01
          0                 7           1             2   11     1       0.4537527204E-04       2   11    1         0.1180913169E-02      0.8198012215E-02
          0                 8           1             2   11     1       0.2033944285E-04       2   11    1         0.5293868891E-03      0.3665915430E-02
          0                 9           1             2   11     1       0.9116259902E-05       2   11    1         0.2372930917E-03      0.1639412196E-02

    ------------------------------------------------
       NWT REQUIRED            9 OUTER ITERATIONS 
       AND A TOTAL OF         14 INNER ITERATIONS.
    ------------------------------------------------

 NO OUTPUT CONTROL FOR STRESS PERIOD    2   TIME STEP    9
 
 SOLVING FOR HEAD 
                                                   Max.-Head-Change                         Max.-Flux-Residual
  Residual-Control   Outer-Iter.   Inner-Iter.     Column Row Layer    Maximum-Head-Change  Column Row Layer    Maximum-Flux-Residual          L2-NORM 
          0                 1           2             6   13     1       0.6352560656E-02       6   13    1         0.3351944105E+00      0.1598591789E+01
          0                 2           2             2   11     1       0.2497971177E-02       2   11    1         0.6498730182E-01      0.5033868437E+00
          0                 3           2             2   11     1       0.1120212285E-02       2   11    1         0.2914583365E-01      0.2074978206E+00
          0                 4           2             2   11     1       0.5023056508E-03       2   11    1         0.1307018066E-01      0.9155001093E-01
          0                 5           2             2   11     1       0.2252112175E-03       2   11    1         0.5860585386E-02      0.4085116048E-01
          0                 6           1             2   11     1       0.1009640849E-03       2   11    1         0.2627571867E-02      0.1826061903E-01
          0                 7           1             2   11     1       0.4525847768E-04       2   11    1         0.1177940391E-02      0.8165189368E-02
          0                 8           1             2   11     1       0.2028572012E-04       2   11    1         0.5280175793E-03      0.3651426793E-02
          0                 9           1             2   11     1       0.9091587823E-05       2   11    1         0.2366634329E-03      0.1633015835E-02

    ------------------------------------------------
       NWT REQUIRED            9 OUTER ITERATIONS 
       AND A TOTAL OF         14 INNER ITERATIONS.
    ------------------------------------------------

 OUTPUT CONTROL FOR STRESS PERIOD    2   TIME STEP   10
    PRINT BUDGET
    SAVE BUDGET
 UBUDSV SAVING "         STORAGE" ON UNIT102 AT TIME STEP    10, STRESS PERIOD    2
 UBUDSV SAVING "   CONSTANT HEAD" ON UNIT102 AT TIME STEP    10, STRESS PERIOD    2
 UBUDSV SAVING "FLOW RIGHT FACE " ON UNIT102 AT TIME STEP    10, STRESS PERIOD    2
 UBUDSV SAVING "FLOW FRONT FACE " ON UNIT102 AT TIME STEP    10, STRESS PERIOD    2

  HEAD DEP BOUNDS   PERIOD    2   STEP    10
 BOUNDARY      1   LAYER   1   ROW    13   COL     1   RATE   -0.286066    
 BOUNDARY      2   LAYER   1   ROW    14   COL     9   RATE    0.284712    



 STREAM LISTING     PERIOD      2   STEP       10

 LAYER ROW COL. STREAM  RCH.  FLOW INTO     FLOW TO   FLOW OUT OF   OVRLND.     DIRECT     STREAM       STREAM     STREAM     STREAM   STREAMBED  STREAMBED
                SEG.NO.  NO.  STRM. RCH.    AQUIFER    STRM. RCH.    RUNOFF     PRECIP       ET          HEAD       DEPTH      WIDTH   CONDCTNC.   GRADIENT

   1    1    1     1     1    4.0000E+00  8.7855E-02   3.9121E+00  0.000E+00  0.000E+00  0.000E+00  1.09374E+03  6.973E-01  5.280E+00  2.376E-02  1.232E+00
   1    2    2     1     2    3.9121E+00  1.3511E-01   3.7770E+00  0.000E+00  0.000E+00  0.000E+00  1.08875E+03  6.904E-01  5.230E+00  3.661E-02  1.230E+00
   1    3    3     1     3    3.7770E+00  1.1429E-01   3.6628E+00  0.000E+00  0.000E+00  0.000E+00  1.08310E+03  6.825E-01  5.172E+00  3.103E-02  1.228E+00
   1    3    4     1     4    3.6628E+00  1.0446E-01   3.5583E+00  0.000E+00  0.000E+00  0.000E+00  1.07808E+03  6.755E-01  5.121E+00  2.842E-02  1.225E+00
   1    4    5     2     1    1.5583E+00  2.5094E-01   1.3074E+00  0.000E+00  0.000E+00  0.000E+00  1.07215E+03  2.172E-01  1.200E+01  7.800E-02  1.072E+00
   1    5    6     2     2    1.3074E+00  1.9178E-01   1.1156E+00  0.000E+00  0.000E+00  0.000E+00  1.06671E+03  1.964E-01  1.200E+01  6.000E-02  1.065E+00
   1    6    6     2     3    1.1156E+00  1.9063E-01   9.2494E-01  0.000E+00  0.000E+00  0.000E+00  1.06197E+03  1.772E-01  1.200E+01  6.000E-02  1.059E+00
   1    7    6     2     4    9.2494E-01  1.8939E-01   7.3554E-01  0.000E+00  0.000E+00  0.000E+00  1.05723E+03  1.566E-01  1.200E+01  6.000E-02  1.052E+00
   1    8    6     2     5    7.3554E-01  1.8805E-01   5.4750E-01  0.000E+00  0.000E+00  0.000E+00  1.05249E+03  1.341E-01  1.200E+01  6.000E-02  1.045E+00
   1    3    5     3     1    2.0000E+00  2.8252E-01   1.7175E+00  0.000E+00  0.000E+00  0.000E+00  1.07555E+03  1.909E+00  9.636E+00  7.227E-02  1.955E+00
   1    3    6     3     2    1.7175E+00  2.4905E-01   1.4684E+00  0.000E+00  0.000E+00  0.000E+00  1.07264E+03  1.727E+00  8.909E+00  6.682E-02  1.864E+00
   1    3    7     3     3    1.4684E+00  1.9718E-01   1.2712E+00  0.000E+00  0.000E+00  0.000E+00  1.06987E+03  1.555E+00  8.218E+00  5.547E-02  1.777E+00
   1    4    8     3     4    1.2712E+00  2.2567E-01   1.0456E+00  0.000E+00  0.000E+00  0.000E+00  1.06682E+03  1.364E+00  7.455E+00  6.709E-02  1.682E+00
   1    5    8     3     5    1.0456E+00  1.5790E-01   8.8768E-01  0.000E+00  0.000E+00  0.000E+00  1.06362E+03  1.164E+00  6.655E+00  4.991E-02  1.582E+00
   1    6    8     3     6    8.8768E-01  5.5980E-02   8.3170E-01  0.000E+00  0.000E+00  0.000E+00  1.06158E+03  1.036E+00  6.145E+00  1.844E-02  1.518E+00
   1    5   10     4     1    1.0000E+01  9.0919E-02   9.9091E+00  0.000E+00  0.000E+00  0.000E+00  1.07836E+03  6.368E-01  1.000E+01  2.500E-02  1.212E+00
   1    5    9     4     2    9.9091E+00  1.8158E-01   9.7275E+00  0.000E+00  0.000E+00  0.000E+00  1.07154E+03  6.315E-01  1.000E+01  5.000E-02  1.211E+00
   1    6    8     4     3    9.7275E+00  1.2689E-01   9.6006E+00  0.000E+00  0.000E+00  0.000E+00  1.06381E+03  6.256E-01  1.000E+01  3.500E-02  1.209E+00
   1    6    8     5     1    1.0432E+01  2.2686E-01   1.0205E+01  0.000E+00  0.000E+00  0.000E+00  1.05868E+03  6.790E-01  1.542E+01  6.166E-02  1.226E+00
   1    7    7     5     2    1.0205E+01  2.7894E-01   9.9265E+00  0.000E+00  0.000E+00  0.000E+00  1.05417E+03  6.732E-01  1.519E+01  7.594E-02  1.224E+00
   1    8    7     5     3    9.9265E+00  1.9221E-01   9.7343E+00  0.000E+00  0.000E+00  0.000E+00  1.04992E+03  6.676E-01  1.497E+01  5.241E-02  1.223E+00
   1    8    6     5     4    9.7343E+00  1.3577E-01   9.5985E+00  0.000E+00  0.000E+00  0.000E+00  1.04691E+03  6.637E-01  1.482E+01  3.706E-02  1.221E+00
   1    9    6     6     1    1.0146E+01  2.2237E-01   9.9237E+00  0.000E+00  0.000E+00  0.000E+00  1.04343E+03  7.061E-01  1.200E+01  6.000E-02  1.235E+00
   1   10    7     6     2    9.9237E+00  2.2180E-01   9.7019E+00  0.000E+00  0.000E+00  0.000E+00  1.03888E+03  6.967E-01  1.200E+01  6.000E-02  1.232E+00
   1   11    7     6     3    9.7019E+00  2.2123E-01   9.4806E+00  0.000E+00  0.000E+00  0.000E+00  1.03432E+03  6.872E-01  1.200E+01  6.000E-02  1.229E+00
   1   12    7     6     4    9.4806E+00  2.2066E-01   9.2600E+00  0.000E+00  0.000E+00  0.000E+00  1.02977E+03  6.777E-01  1.200E+01  6.000E-02  1.226E+00
   1   13    7     6     5    9.2600E+00 -9.7411E-02   9.3574E+00  0.000E+00  0.000E+00  0.000E+00  1.02658E+03  6.750E-01  1.200E+01  2.400E-01 -1.353E-01
   1   14    9     7     1    1.5000E+02  1.3204E+00   1.4868E+02  0.000E+00  0.000E+00  0.000E+00  1.03987E+03  2.288E+00  5.529E+01  5.593E-01  7.870E-01
   1   13    8     7     2    1.4868E+02  1.8370E+00   1.4684E+02  0.000E+00  0.000E+00  0.000E+00  1.03478E+03  2.279E+00  5.526E+01  6.148E-01  9.960E-01
   1   13    7     7     3    1.4684E+02  1.5077E+00   1.4533E+02  0.000E+00  0.000E+00  0.000E+00  1.02969E+03  2.270E+00  5.522E+01  5.585E-01  8.999E-01
   1   13    6     8     1    1.5469E+02  8.6601E-01   1.5383E+02  0.000E+00  0.000E+00  0.000E+00  1.02472E+03  2.847E+00  4.128E+01  4.206E-01  6.863E-01
   1   13    5     8     2    1.5383E+02  1.2503E-01   1.5370E+02  0.000E+00  0.000E+00  0.000E+00  1.01847E+03  2.843E+00  4.123E+01  4.201E-01  9.921E-02
   1   13    4     8     3    1.5370E+02 -2.6856E+00   1.5639E+02  0.000E+00  0.000E+00  0.000E+00  1.01223E+03  2.852E+00  4.135E+01  4.214E+00 -2.124E-01
   1   13    3     8     4    1.5639E+02 -3.7750E+00   1.6016E+02  0.000E+00  0.000E+00  0.000E+00  1.00600E+03  2.874E+00  4.167E+01  4.247E+00 -2.963E-01
   1   13    2     8     5    1.6016E+02 -2.5899E+00   1.6275E+02  0.000E+00  0.000E+00  0.000E+00  9.99771E+02  2.896E+00  4.199E+01  4.279E+00 -2.018E-01
   1   13    1     8     6    1.6275E+02 -1.9155E+00   1.6467E+02  0.000E+00  0.000E+00  0.000E+00  9.94786E+02  2.911E+00  4.221E+01  2.581E+00 -2.474E-01
   1    6    8     9     1    0.0000E+00  0.0000E+00   0.0000E+00  0.000E+00  0.000E+00  0.000E+00  1.07850E+03  0.000E+00  4.000E+00  0.000E+00  1.000E+00



 UBDSV3 SAVING "     NETRECHARGE" ON UNIT 100 AT TIME STEP    10, STRESS PERIOD   2
 UBDSV3 SAVING "    NETDISCHARGE" ON UNIT 101 AT TIME STEP    10, STRESS PERIOD   2
 UBDSV3 SAVING "           GW ET" ON UNIT  61 AT TIME STEP    10, STRESS PERIOD   2
 UBDSV3 SAVING "    UZF RECHARGE" ON UNIT  61 AT TIME STEP    10, STRESS PERIOD   2
 UBDSV3 SAVING " SURFACE LEAKAGE" ON UNIT  61 AT TIME STEP    10, STRESS PERIOD   2
 UBDSV3 SAVING "       HORT+DUNN" ON UNIT  61 AT TIME STEP    10, STRESS PERIOD   2
 UBDSV3 SAVING "  STORAGE CHANGE" ON UNIT  61 AT TIME STEP    10, STRESS PERIOD   2


UNSATURATED ZONE PACKAGE VOLUMETRIC BUDGET FOR  TIME STEP    10 STRESS PERIOD    2
  ------------------------------------------------------------------------------



     CUMULATIVE VOLUMES      L**3       RATES FOR THIS TIME STEP      L**3/T
     ------------------                 ------------------------

           IN:                                      IN:
           ---                                      ---
        INFILTRATION =      151807.6534          INFILTRATION =       0.0000E+00

          OUT:                                     OUT:
          ----                                     ----
              UZF ET =      254033.9526                UZF ET =           0.2900
        UZF RECHARGE =    24885919.8945          UZF RECHARGE =          27.9833

            IN - OUT =   -24988146.1938              IN - OUT =         -28.2733

          STORAGE:                                 STORAGE:
          --------                                 --------
      STORAGE CHANGE =   -24984176.0762        STORAGE CHANGE =         -28.2732

 PERCENT DISCREPANCY IS DIFFERENCE BETWEEN IN-OUT MINUS CHANGE IN STORAGE
 DIVIDED BY THE AVERAGE OF IN AND OUT TIMES 100

 PERCENT DISCREPANCY =          -0.00     PERCENT DISCREPANCY =          -0.00






1
  VOLUMETRIC BUDGET FOR ENTIRE MODEL AT END OF TIME STEP   10, STRESS PERIOD   2
  ------------------------------------------------------------------------------

     CUMULATIVE VOLUMES      L**3       RATES FOR THIS TIME STEP      L**3/T
     ------------------                 ------------------------

           IN:                                      IN:
           ---                                      ---
             STORAGE     =           0.0000               STORAGE     =           0.0000
       CONSTANT HEAD     =           0.0000         CONSTANT HEAD     =           0.0000
               WELLS     =           0.0000                 WELLS     =           0.0000
     HEAD DEP BOUNDS     =      274598.0000       HEAD DEP BOUNDS     =           0.2847
      STREAM LEAKAGE     =    10074958.0000        STREAM LEAKAGE     =          10.3963
        UZF RECHARGE     =    24885920.0000          UZF RECHARGE     =          27.9833
               GW ET     =           0.0000                 GW ET     =           0.0000
     SURFACE LEAKAGE     =           0.0000       SURFACE LEAKAGE     =           0.0000
    SUPPLEMENTARY WELLS  =           0.0000      SUPPLEMENTARY WELLS  =           0.0000

                TOTAL IN =    35235476.0000                  TOTAL IN =          38.6643

          OUT:                                     OUT:
          ----                                     ----
             STORAGE     =    24506750.0000               STORAGE     =          27.3092
       CONSTANT HEAD     =           0.0000         CONSTANT HEAD     =           0.0000
               WELLS     =           0.0000                 WELLS     =           0.0000
     HEAD DEP BOUNDS     =      274135.0625       HEAD DEP BOUNDS     =           0.2861
      STREAM LEAKAGE     =    10268791.0000        STREAM LEAKAGE     =          11.0634
        UZF RECHARGE     =           0.0000          UZF RECHARGE     =           0.0000
               GW ET     =      149509.9688                 GW ET     =       3.0351E-10
     SURFACE LEAKAGE     =           0.0000       SURFACE LEAKAGE     =           0.0000
    SUPPLEMENTARY WELLS  =       31277.1836      SUPPLEMENTARY WELLS  =           0.0000

               TOTAL OUT =    35230460.0000                 TOTAL OUT =          38.6587

                IN - OUT =        5016.0000                  IN - OUT =       5.6152E-03

     PERCENT DISCREPANCY =           0.01         PERCENT DISCREPANCY =           0.01






         TIME SUMMARY AT END OF TIME STEP   10 IN STRESS PERIOD    2
                    SECONDS     MINUTES      HOURS       DAYS        YEARS
                    -----------------------------------------------------------
   TIME STEP LENGTH  87600.      1460.0      24.333      1.0139     2.77588E-03
 STRESS PERIOD TIME 8.76000E+05  14600.      243.33      10.139     2.77588E-02
         TOTAL TIME 9.62400E+05  16040.      267.33      11.139     3.04966E-02
1
 
 SOLVING FOR HEAD 
                                                   Max.-Head-Change                         Max.-Flux-Residual
  Residual-Control   Outer-Iter.   Inner-Iter.     Column Row Layer    Maximum-Head-Change  Column Row Layer    Maximum-Flux-Residual          L2-NORM 
          0                 1           2             6   13     1       0.6239219305E-02       6   13    1         0.3291845311E+00      0.1587920433E+01
          0                 2           2             2   11     1       0.2492223664E-02       2   11    1         0.6484194092E-01      0.5009925795E+00
          0                 3           2             2   11     1       0.1117549452E-02       2   11    1         0.2907835612E-01      0.2066210071E+00
          0                 4           2             2   11     1       0.5010746593E-03       2   11    1         0.1303893137E-01      0.9117384306E-01
          0                 5           2             2   11     1       0.2246432819E-03       2   11    1         0.5846144787E-02      0.4068646140E-01
          0                 6           1             2   11     1       0.1007025378E-03       2   11    1         0.2620911827E-02      0.1818826497E-01
          0                 7           1             2   11     1       0.4513823005E-04       2   11    1         0.1174874267E-02      0.8133383858E-02
          0                 8           1             2   11     1       0.2023052099E-04       2   11    1         0.5266083300E-03      0.3637441689E-02
          0                 9           1             2   11     1       0.9066284214E-05       2   11    1         0.2360166919E-03      0.1626863948E-02

    ------------------------------------------------
       NWT REQUIRED            9 OUTER ITERATIONS 
       AND A TOTAL OF         14 INNER ITERATIONS.
    ------------------------------------------------

 NO OUTPUT CONTROL FOR STRESS PERIOD    2   TIME STEP   11
 
 SOLVING FOR HEAD 
                                                   Max.-Head-Change                         Max.-Flux-Residual
  Residual-Control   Outer-Iter.   Inner-Iter.     Column Row Layer    Maximum-Head-Change  Column Row Layer    Maximum-Flux-Residual          L2-NORM 
          0                 1           2             6   13     1       0.6128711721E-02       6   13    1         0.3233250976E+00      0.1576679020E+01
          0                 2           2             2   11     1       0.2486158207E-02       2   11    1         0.6468805922E-01      0.4985285987E+00
          0                 3           2             2   11     1       0.1114749111E-02       2   11    1         0.2900719380E-01      0.2057538479E+00
          0                 4           2             2   11     1       0.4997841937E-03       2   11    1         0.1300608839E-01      0.9080699554E-01
          0                 5           2             2   11     1       0.2240496242E-03       2   11    1         0.5831014907E-02      0.4052538151E-01
          0                 6           1             2   11     1       0.1004298661E-03       2   11    1         0.2613953666E-02      0.1811719439E-01
          0                 7           1             2   11     1       0.4501317202E-04       2   11    1         0.1171679219E-02      0.8101992487E-02
          0                 8           1             2   11     1       0.2017324144E-04       2   11    1         0.5251433309E-03      0.3623579166E-02
          0                 9           1             2   11     1       0.9040081455E-05       2   11    1         0.2353458455E-03      0.1620737465E-02

    ------------------------------------------------
       NWT REQUIRED            9 OUTER ITERATIONS 
       AND A TOTAL OF         14 INNER ITERATIONS.
    ------------------------------------------------

 NO OUTPUT CONTROL FOR STRESS PERIOD    2   TIME STEP   12
 
 SOLVING FOR HEAD 
                                                   Max.-Head-Change                         Max.-Flux-Residual
  Residual-Control   Outer-Iter.   Inner-Iter.     Column Row Layer    Maximum-Head-Change  Column Row Layer    Maximum-Flux-Residual          L2-NORM 
          0                 1           2             6   13     1       0.6021029852E-02       6   13    1         0.3176167500E+00      0.1566010324E+01
          0                 2           2             2   11     1       0.2479793288E-02       2   11    1         0.6452616651E-01      0.4961507431E+00
          0                 3           2             2   11     1       0.1111818976E-02       2   11    1         0.2893255944E-01      0.2049029808E+00
          0                 4           2             2   11     1       0.4984374732E-03       2   11    1         0.1297174054E-01      0.9044412796E-01
          0                 5           2             2   11     1       0.2234315864E-03       2   11    1         0.5815232798E-02      0.4036589158E-01
          0                 6           1             2   11     1       0.1001466293E-03       2   11    1         0.2606712847E-02      0.1804679010E-01
          0                 7           1             2   11     1       0.4488353609E-04       2   11    1         0.1168361683E-02      0.8070891132E-02
          0                 8           1             2   11     1       0.2011397863E-04       2   11    1         0.5236252602E-03      0.3609829508E-02
          0                 9           1             2   11     1       0.9013020066E-05       2   11    1         0.2346520111E-03      0.1614660958E-02

    ------------------------------------------------
       NWT REQUIRED            9 OUTER ITERATIONS 
       AND A TOTAL OF         14 INNER ITERATIONS.
    ------------------------------------------------

 NO OUTPUT CONTROL FOR STRESS PERIOD    2   TIME STEP   13
 
 SOLVING FOR HEAD 
                                                   Max.-Head-Change                         Max.-Flux-Residual
  Residual-Control   Outer-Iter.   Inner-Iter.     Column Row Layer    Maximum-Head-Change  Column Row Layer    Maximum-Flux-Residual          L2-NORM 
          0                 1           2             6   13     1       0.5916070393E-02       6   13    1         0.3120535111E+00      0.1557683300E+01
          0                 2           2             2   11     1       0.2473196546E-02       2   11    1         0.6435803083E-01      0.4940266667E+00
          0                 3           2             2   11     1       0.1108789228E-02       2   11    1         0.2885524139E-01      0.2040832209E+00
          0                 4           2             2   11     1       0.4970479718E-03       2   11    1         0.1293623963E-01      0.9008896988E-01
          0                 5           2             2   11     1       0.2227951845E-03       2   11    1         0.5798955524E-02      0.4020937136E-01
          0                 6           1             2   11     1       0.9985551359E-04       2   11    1         0.2599259492E-02      0.1797764149E-01
          0                 7           1             2   11     1       0.4475052179E-04       2   11    1         0.1164952969E-02      0.8040328988E-02
          0                 8           1             2   11     1       0.2005326755E-04       2   11    1         0.5220680885E-03      0.3596318689E-02
          0                 9           1             2   11     1       0.8985337775E-05       2   11    1         0.2339414179E-03      0.1608689672E-02

    ------------------------------------------------
       NWT REQUIRED            9 OUTER ITERATIONS 
       AND A TOTAL OF         14 INNER ITERATIONS.
    ------------------------------------------------

 NO OUTPUT CONTROL FOR STRESS PERIOD    2   TIME STEP   14
 
 SOLVING FOR HEAD 
                                                   Max.-Head-Change                         Max.-Flux-Residual
  Residual-Control   Outer-Iter.   Inner-Iter.     Column Row Layer    Maximum-Head-Change  Column Row Layer    Maximum-Flux-Residual          L2-NORM 
          0                 1           2             6   13     1       0.5813845338E-02       6   13    1         0.3066360079E+00      0.1549401850E+01
          0                 2           2             2   11     1       0.2466383402E-02       2   11    1         0.6418407986E-01      0.4919415768E+00
          0                 3           2             2   11     1       0.1105666213E-02       2   11    1         0.2877541695E-01      0.2032757858E+00
          0                 4           2             2   11     1       0.4956182785E-03       2   11    1         0.1289965849E-01      0.8973891544E-01
          0                 5           2             2   11     1       0.2221414663E-03       2   11    1         0.5782212761E-02      0.4005504204E-01
          0                 6           1             2   11     1       0.9955694003E-04       2   11    1         0.2591605607E-02      0.1790944323E-01
          0                 7           1             2   11     1       0.4461429618E-04       2   11    1         0.1161457892E-02      0.8010178688E-02
          0                 8           1             2   11     1       0.1999117485E-04       2   11    1         0.5204737401E-03      0.3582985725E-02
          0                 9           1             2   11     1       0.8957061096E-05       2   11    1         0.2332148223E-03      0.1602789270E-02

    ------------------------------------------------
       NWT REQUIRED            9 OUTER ITERATIONS 
       AND A TOTAL OF         14 INNER ITERATIONS.
    ------------------------------------------------

 OUTPUT CONTROL FOR STRESS PERIOD    2   TIME STEP   15
    PRINT BUDGET
    PRINT HEAD FOR ALL LAYERS
    SAVE HEAD FOR ALL LAYERS
    SAVE BUDGET
 UBUDSV SAVING "         STORAGE" ON UNIT102 AT TIME STEP    15, STRESS PERIOD    2
 UBUDSV SAVING "   CONSTANT HEAD" ON UNIT102 AT TIME STEP    15, STRESS PERIOD    2
 UBUDSV SAVING "FLOW RIGHT FACE " ON UNIT102 AT TIME STEP    15, STRESS PERIOD    2
 UBUDSV SAVING "FLOW FRONT FACE " ON UNIT102 AT TIME STEP    15, STRESS PERIOD    2

  HEAD DEP BOUNDS   PERIOD    2   STEP    15
 BOUNDARY      1   LAYER   1   ROW    13   COL     1   RATE   -0.286928    
 BOUNDARY      2   LAYER   1   ROW    14   COL     9   RATE    0.284125    



 STREAM LISTING     PERIOD      2   STEP       15

 LAYER ROW COL. STREAM  RCH.  FLOW INTO     FLOW TO   FLOW OUT OF   OVRLND.     DIRECT     STREAM       STREAM     STREAM     STREAM   STREAMBED  STREAMBED
                SEG.NO.  NO.  STRM. RCH.    AQUIFER    STRM. RCH.    RUNOFF     PRECIP       ET          HEAD       DEPTH      WIDTH   CONDCTNC.   GRADIENT

   1    1    1     1     1    4.0000E+00  8.7855E-02   3.9121E+00  0.000E+00  0.000E+00  0.000E+00  1.09374E+03  6.973E-01  5.280E+00  2.376E-02  1.232E+00
   1    2    2     1     2    3.9121E+00  1.3511E-01   3.7770E+00  0.000E+00  0.000E+00  0.000E+00  1.08875E+03  6.904E-01  5.230E+00  3.661E-02  1.230E+00
   1    3    3     1     3    3.7770E+00  1.1429E-01   3.6628E+00  0.000E+00  0.000E+00  0.000E+00  1.08310E+03  6.825E-01  5.172E+00  3.103E-02  1.228E+00
   1    3    4     1     4    3.6628E+00  1.0446E-01   3.5583E+00  0.000E+00  0.000E+00  0.000E+00  1.07808E+03  6.755E-01  5.121E+00  2.842E-02  1.225E+00
   1    4    5     2     1    1.5583E+00  2.5094E-01   1.3074E+00  0.000E+00  0.000E+00  0.000E+00  1.07215E+03  2.172E-01  1.200E+01  7.800E-02  1.072E+00
   1    5    6     2     2    1.3074E+00  1.9178E-01   1.1156E+00  0.000E+00  0.000E+00  0.000E+00  1.06671E+03  1.964E-01  1.200E+01  6.000E-02  1.065E+00
   1    6    6     2     3    1.1156E+00  1.9063E-01   9.2494E-01  0.000E+00  0.000E+00  0.000E+00  1.06197E+03  1.772E-01  1.200E+01  6.000E-02  1.059E+00
   1    7    6     2     4    9.2494E-01  1.8939E-01   7.3554E-01  0.000E+00  0.000E+00  0.000E+00  1.05723E+03  1.566E-01  1.200E+01  6.000E-02  1.052E+00
   1    8    6     2     5    7.3554E-01  1.8805E-01   5.4750E-01  0.000E+00  0.000E+00  0.000E+00  1.05249E+03  1.341E-01  1.200E+01  6.000E-02  1.045E+00
   1    3    5     3     1    2.0000E+00  2.8252E-01   1.7175E+00  0.000E+00  0.000E+00  0.000E+00  1.07555E+03  1.909E+00  9.636E+00  7.227E-02  1.955E+00
   1    3    6     3     2    1.7175E+00  2.4905E-01   1.4684E+00  0.000E+00  0.000E+00  0.000E+00  1.07264E+03  1.727E+00  8.909E+00  6.682E-02  1.864E+00
   1    3    7     3     3    1.4684E+00  1.9718E-01   1.2712E+00  0.000E+00  0.000E+00  0.000E+00  1.06987E+03  1.555E+00  8.218E+00  5.547E-02  1.777E+00
   1    4    8     3     4    1.2712E+00  2.2567E-01   1.0456E+00  0.000E+00  0.000E+00  0.000E+00  1.06682E+03  1.364E+00  7.455E+00  6.709E-02  1.682E+00
   1    5    8     3     5    1.0456E+00  1.5790E-01   8.8768E-01  0.000E+00  0.000E+00  0.000E+00  1.06362E+03  1.164E+00  6.655E+00  4.991E-02  1.582E+00
   1    6    8     3     6    8.8768E-01  5.5980E-02   8.3170E-01  0.000E+00  0.000E+00  0.000E+00  1.06158E+03  1.036E+00  6.145E+00  1.844E-02  1.518E+00
   1    5   10     4     1    1.0000E+01  9.0919E-02   9.9091E+00  0.000E+00  0.000E+00  0.000E+00  1.07836E+03  6.368E-01  1.000E+01  2.500E-02  1.212E+00
   1    5    9     4     2    9.9091E+00  1.8158E-01   9.7275E+00  0.000E+00  0.000E+00  0.000E+00  1.07154E+03  6.315E-01  1.000E+01  5.000E-02  1.211E+00
   1    6    8     4     3    9.7275E+00  1.2689E-01   9.6006E+00  0.000E+00  0.000E+00  0.000E+00  1.06381E+03  6.256E-01  1.000E+01  3.500E-02  1.209E+00
   1    6    8     5     1    1.0432E+01  2.2686E-01   1.0205E+01  0.000E+00  0.000E+00  0.000E+00  1.05868E+03  6.790E-01  1.542E+01  6.166E-02  1.226E+00
   1    7    7     5     2    1.0205E+01  2.7894E-01   9.9265E+00  0.000E+00  0.000E+00  0.000E+00  1.05417E+03  6.732E-01  1.519E+01  7.594E-02  1.224E+00
   1    8    7     5     3    9.9265E+00  1.9221E-01   9.7343E+00  0.000E+00  0.000E+00  0.000E+00  1.04992E+03  6.676E-01  1.497E+01  5.241E-02  1.223E+00
   1    8    6     5     4    9.7343E+00  1.3577E-01   9.5985E+00  0.000E+00  0.000E+00  0.000E+00  1.04691E+03  6.637E-01  1.482E+01  3.706E-02  1.221E+00
   1    9    6     6     1    1.0146E+01  2.2237E-01   9.9237E+00  0.000E+00  0.000E+00  0.000E+00  1.04343E+03  7.061E-01  1.200E+01  6.000E-02  1.235E+00
   1   10    7     6     2    9.9237E+00  2.2180E-01   9.7019E+00  0.000E+00  0.000E+00  0.000E+00  1.03888E+03  6.967E-01  1.200E+01  6.000E-02  1.232E+00
   1   11    7     6     3    9.7019E+00  2.2123E-01   9.4806E+00  0.000E+00  0.000E+00  0.000E+00  1.03432E+03  6.872E-01  1.200E+01  6.000E-02  1.229E+00
   1   12    7     6     4    9.4806E+00  2.2066E-01   9.2600E+00  0.000E+00  0.000E+00  0.000E+00  1.02977E+03  6.777E-01  1.200E+01  6.000E-02  1.226E+00
   1   13    7     6     5    9.2600E+00 -1.0484E-01   9.3648E+00  0.000E+00  0.000E+00  0.000E+00  1.02658E+03  6.752E-01  1.200E+01  2.400E-01 -1.456E-01
   1   14    9     7     1    1.5000E+02  1.3118E+00   1.4869E+02  0.000E+00  0.000E+00  0.000E+00  1.03987E+03  2.288E+00  5.530E+01  5.593E-01  7.818E-01
   1   13    8     7     2    1.4869E+02  1.8256E+00   1.4686E+02  0.000E+00  0.000E+00  0.000E+00  1.03478E+03  2.279E+00  5.526E+01  6.148E-01  9.899E-01
   1   13    7     7     3    1.4686E+02  1.4904E+00   1.4537E+02  0.000E+00  0.000E+00  0.000E+00  1.02969E+03  2.271E+00  5.522E+01  5.585E-01  8.896E-01
   1   13    6     8     1    1.5474E+02  8.5097E-01   1.5389E+02  0.000E+00  0.000E+00  0.000E+00  1.02472E+03  2.847E+00  4.128E+01  4.207E-01  6.743E-01
   1   13    5     8     2    1.5389E+02  1.1107E-01   1.5377E+02  0.000E+00  0.000E+00  0.000E+00  1.01847E+03  2.844E+00  4.123E+01  4.202E-01  8.812E-02
   1   13    4     8     3    1.5377E+02 -2.7420E+00   1.5652E+02  0.000E+00  0.000E+00  0.000E+00  1.01223E+03  2.853E+00  4.136E+01  4.215E+00 -2.168E-01
   1   13    3     8     4    1.5652E+02 -3.8246E+00   1.6034E+02  0.000E+00  0.000E+00  0.000E+00  1.00600E+03  2.875E+00  4.169E+01  4.248E+00 -3.001E-01
   1   13    2     8     5    1.6034E+02 -2.6534E+00   1.6299E+02  0.000E+00  0.000E+00  0.000E+00  9.99772E+02  2.897E+00  4.201E+01  4.281E+00 -2.066E-01
   1   13    1     8     6    1.6299E+02 -1.9706E+00   1.6497E+02  0.000E+00  0.000E+00  0.000E+00  9.94788E+02  2.913E+00  4.223E+01  2.582E+00 -2.544E-01
   1    6    8     9     1    0.0000E+00  0.0000E+00   0.0000E+00  0.000E+00  0.000E+00  0.000E+00  1.07850E+03  0.000E+00  4.000E+00  0.000E+00  1.000E+00



 UBDSV3 SAVING "     NETRECHARGE" ON UNIT 100 AT TIME STEP    15, STRESS PERIOD   2
 UBDSV3 SAVING "    NETDISCHARGE" ON UNIT 101 AT TIME STEP    15, STRESS PERIOD   2
 UBDSV3 SAVING "           GW ET" ON UNIT  61 AT TIME STEP    15, STRESS PERIOD   2
 UBDSV3 SAVING "    UZF RECHARGE" ON UNIT  61 AT TIME STEP    15, STRESS PERIOD   2
 UBDSV3 SAVING " SURFACE LEAKAGE" ON UNIT  61 AT TIME STEP    15, STRESS PERIOD   2
 UBDSV3 SAVING "       HORT+DUNN" ON UNIT  61 AT TIME STEP    15, STRESS PERIOD   2
 UBDSV3 SAVING "  STORAGE CHANGE" ON UNIT  61 AT TIME STEP    15, STRESS PERIOD   2


UNSATURATED ZONE PACKAGE VOLUMETRIC BUDGET FOR  TIME STEP    15 STRESS PERIOD    2
  ------------------------------------------------------------------------------



     CUMULATIVE VOLUMES      L**3       RATES FOR THIS TIME STEP      L**3/T
     ------------------                 ------------------------

           IN:                                      IN:
           ---                                      ---
        INFILTRATION =      151807.6534          INFILTRATION =       0.0000E+00

          OUT:                                     OUT:
          ----                                     ----
              UZF ET =      381053.9526                UZF ET =           0.2900
        UZF RECHARGE =    37056322.8643          UZF RECHARGE =          27.6366

            IN - OUT =   -37285569.1635              IN - OUT =         -27.9266

          STORAGE:                                 STORAGE:
          --------                                 --------
      STORAGE CHANGE =   -37281556.1287        STORAGE CHANGE =         -27.9265

 PERCENT DISCREPANCY IS DIFFERENCE BETWEEN IN-OUT MINUS CHANGE IN STORAGE
 DIVIDED BY THE AVERAGE OF IN AND OUT TIMES 100

 PERCENT DISCREPANCY =          -0.00     PERCENT DISCREPANCY =          -0.00






1
              HEAD IN LAYER   1 AT END OF TIME STEP    15 IN STRESS PERIOD    2
  -----------------------------------------------------------------------------

           1       2       3       4       5       6       7       8       9      10
 ...................................................................................
   1  1033.29 1032.25 6999.00 6999.00 6999.00 6999.00 6999.00 6999.00 6999.00 6999.00
   2  1032.42 1031.10 1030.50 6999.00 6999.00 1031.61 1031.75 1031.72 6999.00 6999.00
   3  6999.00 1030.27 1029.88 1029.64 1030.23 1030.85 1031.33 1031.29 6999.00 6999.00
   4  1029.54 1029.52 1029.33 1029.07 1029.13 1029.17 1029.71 1030.74 1030.46 6999.00
   5  1029.09 1028.73 1028.57 1028.42 1028.49 1028.67 1028.81 1029.28 1029.90 1030.41
   6  1028.51 1027.98 1027.80 1027.71 1027.81 1028.09 1028.35 1028.86 1029.39 1030.32
   7  1027.99 1026.99 1026.84 1026.82 1026.97 1027.33 1027.73 1028.20 1028.80 6999.00
   8  6999.00 1025.53 1025.58 1025.67 1025.88 1026.34 1026.75 1027.56 1028.09 6999.00
   9  6999.00 1023.37 1023.69 1024.07 1024.45 1025.08 1025.59 1026.41 1027.49 6999.00
  10  6999.00 1020.37 1021.13 1022.11 1022.89 1023.89 1024.79 1025.93 1027.52 1028.16
  11  6999.00 1015.69 1017.10 1019.59 1021.22 1022.95 1024.48 1026.33 1028.52 6999.00
  12  1002.03 1008.10 1012.17 1016.16 1019.43 1022.40 1024.90 1028.38 1031.39 6999.00
  13   995.55 1000.39 1006.90 1012.88 1018.20 1022.70 1027.02 1031.81 1034.67 6999.00
  14  6999.00 1005.88 1008.96 1013.59 1018.31 1022.69 1027.63 1033.17 1037.52 6999.00
  15  6999.00 6999.00 1012.57 1015.28 1018.73 1021.73 6999.00 6999.00 6999.00 6999.00

 HEAD WILL BE SAVED ON UNIT   62 AT END OF TIME STEP   15, STRESS PERIOD    2
1
  VOLUMETRIC BUDGET FOR ENTIRE MODEL AT END OF TIME STEP   15, STRESS PERIOD   2
  ------------------------------------------------------------------------------

     CUMULATIVE VOLUMES      L**3       RATES FOR THIS TIME STEP      L**3/T
     ------------------                 ------------------------

           IN:                                      IN:
           ---                                      ---
             STORAGE     =           0.0000               STORAGE     =           0.0000
       CONSTANT HEAD     =           0.0000         CONSTANT HEAD     =           0.0000
               WELLS     =           0.0000                 WELLS     =           0.0000
     HEAD DEP BOUNDS     =      399146.9688       HEAD DEP BOUNDS     =           0.2841
      STREAM LEAKAGE     =    14610910.0000        STREAM LEAKAGE     =          10.3300
        UZF RECHARGE     =    37056324.0000          UZF RECHARGE     =          27.6366
               GW ET     =           0.0000                 GW ET     =           0.0000
     SURFACE LEAKAGE     =           0.0000       SURFACE LEAKAGE     =           0.0000
    SUPPLEMENTARY WELLS  =           0.0000      SUPPLEMENTARY WELLS  =           0.0000

                TOTAL IN =    52066380.0000                  TOTAL IN =          38.2507

          OUT:                                     OUT:
          ----                                     ----
             STORAGE     =    36298348.0000               STORAGE     =          26.6627
       CONSTANT HEAD     =           0.0000         CONSTANT HEAD     =           0.0000
               WELLS     =           0.0000                 WELLS     =           0.0000
     HEAD DEP BOUNDS     =      399667.1250       HEAD DEP BOUNDS     =           0.2869
      STREAM LEAKAGE     =    15180132.0000        STREAM LEAKAGE     =          11.2955
        UZF RECHARGE     =           0.0000          UZF RECHARGE     =           0.0000
               GW ET     =      149509.9688                 GW ET     =       3.0357E-10
     SURFACE LEAKAGE     =           0.0000       SURFACE LEAKAGE     =           0.0000
    SUPPLEMENTARY WELLS  =       31277.1836      SUPPLEMENTARY WELLS  =           0.0000

               TOTAL OUT =    52058932.0000                 TOTAL OUT =          38.2452

                IN - OUT =        7448.0000                  IN - OUT =       5.5046E-03

     PERCENT DISCREPANCY =           0.01         PERCENT DISCREPANCY =           0.01






         TIME SUMMARY AT END OF TIME STEP   15 IN STRESS PERIOD    2
                    SECONDS     MINUTES      HOURS       DAYS        YEARS
                    -----------------------------------------------------------
   TIME STEP LENGTH  87600.      1460.0      24.333      1.0139     2.77588E-03
 STRESS PERIOD TIME 1.31400E+06  21900.      365.00      15.208     4.16381E-02
         TOTAL TIME 1.40040E+06  23340.      389.00      16.208     4.43760E-02
1
 
 SOLVING FOR HEAD 
                                                   Max.-Head-Change                         Max.-Flux-Residual
  Residual-Control   Outer-Iter.   Inner-Iter.     Column Row Layer    Maximum-Head-Change  Column Row Layer    Maximum-Flux-Residual          L2-NORM 
          0                 1           2             6   13     1       0.5714064232E-02       6   13    1         0.3013477164E+00      0.1543171570E+01
          0                 2           2             2   11     1       0.2459319353E-02       2   11    1         0.6400341781E-01      0.4900544014E+00
          0                 3           2             2   11     1       0.1102434467E-02       2   11    1         0.2869268336E-01      0.2024954474E+00
          0                 4           2             2   11     1       0.4941414806E-03       2   11    1         0.1286181676E-01      0.8939632983E-01
          0                 5           2             2   11     1       0.2214673461E-03       2   11    1         0.5764923905E-02      0.3990367397E-01
          0                 6           1             2   11     1       0.9924953042E-04       2   11    1         0.2583715194E-02      0.1784251840E-01
          0                 7           1             2   11     1       0.4447424400E-04       2   11    1         0.1157860380E-02      0.7980578038E-02
          0                 8           1             2   11     1       0.1992742493E-04       2   11    1         0.5188350318E-03      0.3569891921E-02
          0                 9           1             2   11     1       0.8928066973E-05       2   11    1         0.2324690186E-03      0.1596997491E-02

    ------------------------------------------------
       NWT REQUIRED            9 OUTER ITERATIONS 
       AND A TOTAL OF         14 INNER ITERATIONS.
    ------------------------------------------------

 NO OUTPUT CONTROL FOR STRESS PERIOD    2   TIME STEP   16
 
 SOLVING FOR HEAD 
                                                   Max.-Head-Change                         Max.-Flux-Residual
  Residual-Control   Outer-Iter.   Inner-Iter.     Column Row Layer    Maximum-Head-Change  Column Row Layer    Maximum-Flux-Residual          L2-NORM 
          0                 1           2             6   13     1       0.5616799865E-02       6   13    1         0.2961915559E+00      0.1537438593E+01
          0                 2           2             2   11     1       0.2452068662E-02       2   11    1         0.6381772935E-01      0.4882219316E+00
          0                 3           2             2   11     1       0.1099122504E-02       2   11    1         0.2860778915E-01      0.2017286562E+00
          0                 4           2             2   11     1       0.4926302142E-03       2   11    1         0.1282304642E-01      0.8905933313E-01
          0                 5           2             2   11     1       0.2207784198E-03       2   11    1         0.5747236061E-02      0.3975475406E-01
          0                 6           1             2   11     1       0.9893576424E-04       2   11    1         0.2575653412E-02      0.1777663998E-01
          0                 7           1             2   11     1       0.4433146436E-04       2   11    1         0.1154189296E-02      0.7951442546E-02
          0                 8           1             2   11     1       0.1986250485E-04       2   11    1         0.5171647525E-03      0.3556998943E-02
          0                 9           1             2   11     1       0.8898571128E-05       2   11    1         0.2317096830E-03      0.1591289941E-02

    ------------------------------------------------
       NWT REQUIRED            9 OUTER ITERATIONS 
       AND A TOTAL OF         14 INNER ITERATIONS.
    ------------------------------------------------

 NO OUTPUT CONTROL FOR STRESS PERIOD    2   TIME STEP   17
 
 SOLVING FOR HEAD 
                                                   Max.-Head-Change                         Max.-Flux-Residual
  Residual-Control   Outer-Iter.   Inner-Iter.     Column Row Layer    Maximum-Head-Change  Column Row Layer    Maximum-Flux-Residual          L2-NORM 
          0                 1           2             6   13     1       0.5521973560E-02       6   13    1         0.2911654749E+00      0.1530258043E+01
          0                 2           2             2   11     1       0.2444595746E-02       2   11    1         0.6362608930E-01      0.4862678614E+00
          0                 3           2             2   11     1       0.1095714360E-02       2   11    1         0.2852031906E-01      0.2009615681E+00
          0                 4           2             2   11     1       0.4910773235E-03       2   11    1         0.1278316125E-01      0.8873576395E-01
          0                 5           2             2   11     1       0.2200714815E-03       2   11    1         0.5729065750E-02      0.3961518778E-01
          0                 6           1             2   11     1       0.9861420397E-04       2   11    1         0.2567382851E-02      0.1771625748E-01
          0                 7           1             2   11     1       0.4418531272E-04       2   11    1         0.1150427885E-02      0.7925304162E-02
          0                 8           1             2   11     1       0.1979612676E-04       2   11    1         0.5154554022E-03      0.3545693343E-02
          0                 9           1             2   11     1       0.8868444878E-05       2   11    1         0.2309334434E-03      0.1586402265E-02

    ------------------------------------------------
       NWT REQUIRED            9 OUTER ITERATIONS 
       AND A TOTAL OF         14 INNER ITERATIONS.
    ------------------------------------------------

 NO OUTPUT CONTROL FOR STRESS PERIOD    2   TIME STEP   18
 
 SOLVING FOR HEAD 
                                                   Max.-Head-Change                         Max.-Flux-Residual
  Residual-Control   Outer-Iter.   Inner-Iter.     Column Row Layer    Maximum-Head-Change  Column Row Layer    Maximum-Flux-Residual          L2-NORM 
          0                 1           2             2   11     1       0.5436859218E-02       6   13    1         0.2861157447E+00      0.1525267512E+01
          0                 2           2             2   11     1       0.2436962724E-02       2   11    1         0.6343013588E-01      0.4845199263E+00
          0                 3           2             2   11     1       0.1092237468E-02       2   11    1         0.2843099570E-01      0.2002285283E+00
          0                 4           2             2   11     1       0.4894949327E-03       2   11    1         0.1274248040E-01      0.8840969928E-01
          0                 5           2             2   11     1       0.2193518935E-03       2   11    1         0.5710554065E-02      0.3947067489E-01
          0                 6           1             2   11     1       0.9828722293E-04       2   11    1         0.2558965920E-02      0.1765227959E-01
          0                 7           1             2   11     1       0.4403683943E-04       2   11    1         0.1146603751E-02      0.7896980864E-02
          0                 8           1             2   11     1       0.1972875460E-04       2   11    1         0.5137191865E-03      0.3533153638E-02
          0                 9           1             1    2     1       0.8844811885E-05       2   11    1         0.2301457040E-03      0.1580848913E-02

    ------------------------------------------------
       NWT REQUIRED            9 OUTER ITERATIONS 
       AND A TOTAL OF         14 INNER ITERATIONS.
    ------------------------------------------------

 NO OUTPUT CONTROL FOR STRESS PERIOD    2   TIME STEP   19
 
 SOLVING FOR HEAD 
                                                   Max.-Head-Change                         Max.-Flux-Residual
  Residual-Control   Outer-Iter.   Inner-Iter.     Column Row Layer    Maximum-Head-Change  Column Row Layer    Maximum-Flux-Residual          L2-NORM 
          0                 1           2             2   11     1       0.5419661734E-02       6   13    1         0.2811170228E+00      0.1520074086E+01
          0                 2           2             2   11     1       0.2429132976E-02       2   11    1         0.6322890679E-01      0.4828296086E+00
          0                 3           2             2   11     1       0.1088675589E-02       2   11    1         0.2833939275E-01      0.1995084547E+00
          0                 4           2             2   11     1       0.4878758345E-03       2   11    1         0.1270081479E-01      0.8809170690E-01
          0                 5           2             2   11     1       0.2186164534E-03       2   11    1         0.5691617047E-02      0.3932991451E-01
          0                 6           1             2   11     1       0.9795339859E-04       2   11    1         0.2550365333E-02      0.1758996049E-01
          0                 7           1             2   11     1       0.4388541182E-04       2   11    1         0.1142700326E-02      0.7869388110E-02
          0                 8           1             1    2     1       0.1966163380E-04       2   11    1         0.5119487504E-03      0.3520933406E-02
          0                 9           1             1    2     1       0.8827236332E-05       1    2    1         0.2294521108E-03      0.1575436560E-02

    ------------------------------------------------
       NWT REQUIRED            9 OUTER ITERATIONS 
       AND A TOTAL OF         14 INNER ITERATIONS.
    ------------------------------------------------

 NO OUTPUT CONTROL FOR STRESS PERIOD    2   TIME STEP   20
 
 SOLVING FOR HEAD 
                                                   Max.-Head-Change                         Max.-Flux-Residual
  Residual-Control   Outer-Iter.   Inner-Iter.     Column Row Layer    Maximum-Head-Change  Column Row Layer    Maximum-Flux-Residual          L2-NORM 
          0                 1           2             2   11     1       0.5402146908E-02       6   13    1         0.2762406144E+00      0.1516266604E+01
          0                 2           2             2   11     1       0.2421166979E-02       2   11    1         0.6302400461E-01      0.4812593070E+00
          0                 3           2             2   11     1       0.1085055236E-02       2   11    1         0.2824621292E-01      0.1988059579E+00
          0                 4           2             2   11     1       0.4862316526E-03       2   11    1         0.1265847248E-01      0.8777948267E-01
          0                 5           2             2   11     1       0.2178702593E-03       2   11    1         0.5672389781E-02      0.3919157962E-01
          0                 6           1             2   11     1       0.9761496521E-04       2   11    1         0.2541640308E-02      0.1752869330E-01
          0                 7           1             2   11     1       0.4373201097E-04       2   11    1         0.1138743589E-02      0.7842253503E-02
          0                 8           1             1    2     1       0.1962283257E-04       2   11    1         0.5101554883E-03      0.3508913534E-02
          0                 9           1             1    2     1       0.8809810345E-05       1    2    1         0.2289992667E-03      0.1570111412E-02

    ------------------------------------------------
       NWT REQUIRED            9 OUTER ITERATIONS 
       AND A TOTAL OF         14 INNER ITERATIONS.
    ------------------------------------------------

 NO OUTPUT CONTROL FOR STRESS PERIOD    2   TIME STEP   21
 
 SOLVING FOR HEAD 
                                                   Max.-Head-Change                         Max.-Flux-Residual
  Residual-Control   Outer-Iter.   Inner-Iter.     Column Row Layer    Maximum-Head-Change  Column Row Layer    Maximum-Flux-Residual          L2-NORM 
          0                 1           2             2   11     1       0.5384228551E-02       6   13    1         0.2714963829E+00      0.1511417198E+01
          0                 2           2             2   11     1       0.2413026565E-02       2   11    1         0.6281442639E-01      0.4796122136E+00
          0                 3           2             2   11     1       0.1081359485E-02       2   11    1         0.2815101186E-01      0.1981048458E+00
          0                 4           2             2   11     1       0.4845548794E-03       2   11    1         0.1261525642E-01      0.8747025228E-01
          0                 5           2             2   11     1       0.2171099785E-03       2   11    1         0.5652784825E-02      0.3905466248E-01
          0                 6           1             2   11     1       0.9727044475E-04       2   11    1         0.2532752046E-02      0.1746805673E-01
          0                 7           1             1    2     1       0.4362116525E-04       2   11    1         0.1134716312E-02      0.7815391740E-02
          0                 8           1             1    2     1       0.1958404160E-04       1    2    1         0.5090609606E-03      0.3497011598E-02
          0                 9           1             1    2     1       0.8792389111E-05       1    2    1         0.2285465565E-03      0.1564836442E-02

    ------------------------------------------------
       NWT REQUIRED            9 OUTER ITERATIONS 
       AND A TOTAL OF         14 INNER ITERATIONS.
    ------------------------------------------------

 NO OUTPUT CONTROL FOR STRESS PERIOD    2   TIME STEP   22
 
 SOLVING FOR HEAD 
                                                   Max.-Head-Change                         Max.-Flux-Residual
  Residual-Control   Outer-Iter.   Inner-Iter.     Column Row Layer    Maximum-Head-Change  Column Row Layer    Maximum-Flux-Residual          L2-NORM 
          0                 1           2             2   11     1       0.5366041428E-02       6   13    1         0.2668740557E+00      0.1507086124E+01
          0                 2           2             2   11     1       0.2404771068E-02       2   11    1         0.6260173860E-01      0.4779710835E+00
          0                 3           2             2   11     1       0.1077614511E-02       2   11    1         0.2805447959E-01      0.1974096892E+00
          0                 4           2             2   11     1       0.4828570744E-03       2   11    1         0.1257147110E-01      0.8716559073E-01
          0                 5           2             2   11     1       0.2163407201E-03       2   11    1         0.5632936684E-02      0.3891999198E-01
          0                 6           1             1    2     1       0.9696929980E-04       2   11    1         0.2523760000E-02      0.1740841363E-01
          0                 7           1             1    2     1       0.4353517433E-04       1    2    1         0.1131637147E-02      0.7788967871E-02
          0                 8           1             1    2     1       0.1954542270E-04       1    2    1         0.5080573881E-03      0.3485309803E-02
          0                 9           1             1    2     1       0.8775045160E-05       1    2    1         0.2280958438E-03      0.1559649238E-02

    ------------------------------------------------
       NWT REQUIRED            9 OUTER ITERATIONS 
       AND A TOTAL OF         14 INNER ITERATIONS.
    ------------------------------------------------

 NO OUTPUT CONTROL FOR STRESS PERIOD    2   TIME STEP   23
 
 SOLVING FOR HEAD 
                                                   Max.-Head-Change                         Max.-Flux-Residual
  Residual-Control   Outer-Iter.   Inner-Iter.     Column Row Layer    Maximum-Head-Change  Column Row Layer    Maximum-Flux-Residual          L2-NORM 
          0                 1           2             2   11     1       0.5347496864E-02       6   13    1         0.2623270324E+00      0.1502487521E+01
          0                 2           2             2   11     1       0.2396361284E-02       2   11    1         0.6238490945E-01      0.4763927947E+00
          0                 3           2             2   11     1       0.1073802968E-02       2   11    1         0.2795615989E-01      0.1967323007E+00
          0                 4           2             2   11     1       0.4811305553E-03       2   11    1         0.1252691460E-01      0.8686610860E-01
          0                 5           2             1    2     1       0.2155612430E-03       2   11    1         0.5612755940E-02      0.3878730963E-01
          0                 6           1             1    2     1       0.9677866892E-04       1    2    1         0.2515618222E-02      0.1734961435E-01
          0                 7           1             1    2     1       0.4344956082E-04       1    2    1         0.1129412344E-02      0.7762905123E-02
          0                 8           1             1    2     1       0.1950697313E-04       1    2    1         0.5070582166E-03      0.3473748082E-02
          0                 9           1             9    9     1       0.8763322956E-05       1    2    1         0.2276471081E-03      0.1554524004E-02

    ------------------------------------------------
       NWT REQUIRED            9 OUTER ITERATIONS 
       AND A TOTAL OF         14 INNER ITERATIONS.
    ------------------------------------------------

 NO OUTPUT CONTROL FOR STRESS PERIOD    2   TIME STEP   24
 
 SOLVING FOR HEAD 
                                                   Max.-Head-Change                         Max.-Flux-Residual
  Residual-Control   Outer-Iter.   Inner-Iter.     Column Row Layer    Maximum-Head-Change  Column Row Layer    Maximum-Flux-Residual          L2-NORM 
          0                 1           2             2   11     1       0.5328728199E-02       6   13    1         0.2577584408E+00      0.1499582708E+01
          0                 2           2             2   11     1       0.2387856245E-02       2   11    1         0.6216549106E-01      0.4748807183E+00
          0                 3           2             2   11     1       0.1069950984E-02       2   11    1         0.2785673987E-01      0.1960630902E+00
          0                 4           2             2   11     1       0.4793868901E-03       2   11    1         0.1248189108E-01      0.8657113580E-01
          0                 5           2             1    2     1       0.2151386339E-03       2   11    1         0.5592377215E-02      0.3865677850E-01
          0                 6           1             1    2     1       0.9658887365E-04       1    2    1         0.2510686072E-02      0.1729177563E-01
          0                 7           1             1    2     1       0.4336432272E-04       1    2    1         0.1127197296E-02      0.7737264945E-02
          0                 8           1             9    9     1       0.1949137621E-04       9    9    1         0.5061660220E-03      0.3462379864E-02
          0                 9           1             9    9     1       0.8761002926E-05       9    9    1         0.2275137687E-03      0.1549482032E-02

    ------------------------------------------------
       NWT REQUIRED            9 OUTER ITERATIONS 
       AND A TOTAL OF         14 INNER ITERATIONS.
    ------------------------------------------------

 NO OUTPUT CONTROL FOR STRESS PERIOD    2   TIME STEP   25
 
 SOLVING FOR HEAD 
                                                   Max.-Head-Change                         Max.-Flux-Residual
  Residual-Control   Outer-Iter.   Inner-Iter.     Column Row Layer    Maximum-Head-Change  Column Row Layer    Maximum-Flux-Residual          L2-NORM 
          0                 1           2             2   11     1       0.5309645070E-02       6   13    1         0.2532994100E+00      0.1494450475E+01
          0                 2           2             2   11     1       0.2379215636E-02       2   11    1         0.6194243010E-01      0.4733044191E+00
          0                 3           2             2   11     1       0.1066040575E-02       2   11    1         0.2775574961E-01      0.1954035959E+00
          0                 4           2             1    2     1       0.4782421616E-03       2   11    1         0.1243619089E-01      0.8628033661E-01
          0                 5           2             1    2     1       0.2147161053E-03       1    2    1         0.5581164856E-02      0.3852789921E-01
          0                 6           1             9    9     1       0.9644880371E-04       1    2    1         0.2505754870E-02      0.1723463673E-01
          0                 7           1             9    9     1       0.4335242469E-04       9    9    1         0.1125804499E-02      0.7711929532E-02
          0                 8           1             9    9     1       0.1948613988E-04       9    9    1         0.5060329277E-03      0.3451143616E-02
          0                 9           1             9    9     1       0.8758588354E-05       9    9    1         0.2274523582E-03      0.1544498163E-02

    ------------------------------------------------
       NWT REQUIRED            9 OUTER ITERATIONS 
       AND A TOTAL OF         14 INNER ITERATIONS.
    ------------------------------------------------

 NO OUTPUT CONTROL FOR STRESS PERIOD    2   TIME STEP   26
 
 SOLVING FOR HEAD 
                                                   Max.-Head-Change                         Max.-Flux-Residual
  Residual-Control   Outer-Iter.   Inner-Iter.     Column Row Layer    Maximum-Head-Change  Column Row Layer    Maximum-Flux-Residual          L2-NORM 
          0                 1           2             2   11     1       0.5290378866E-02       6   13    1         0.2487569588E+00      0.1491618175E+01
          0                 2           2             2   11     1       0.2370497774E-02       2   11    1         0.6171725668E-01      0.4719435740E+00
          0                 3           2             1    2     1       0.1063070181E-02       2   11    1         0.2765386823E-01      0.1947671141E+00
          0                 4           2             1    2     1       0.4773093750E-03       1    2    1         0.1240642664E-01      0.8599497639E-01
          0                 5           2             9    9     1       0.2145181052E-03       9    9    1         0.5570693160E-02      0.3840112939E-01
          0                 6           1             9    9     1       0.9642321835E-04       9    9    1         0.2503976724E-02      0.1717840811E-01
          0                 7           1             9    9     1       0.4334062495E-04       9    9    1         0.1125504430E-02      0.7686990122E-02
          0                 8           1             9    9     1       0.1948070222E-04       9    9    1         0.5058945589E-03      0.3440080969E-02
          0                 9           1             9    9     1       0.8756084492E-05       9    9    1         0.2273886044E-03      0.1539590822E-02

    ------------------------------------------------
       NWT REQUIRED            9 OUTER ITERATIONS 
       AND A TOTAL OF         14 INNER ITERATIONS.
    ------------------------------------------------

 NO OUTPUT CONTROL FOR STRESS PERIOD    2   TIME STEP   27
 
 SOLVING FOR HEAD 
                                                   Max.-Head-Change                         Max.-Flux-Residual
  Residual-Control   Outer-Iter.   Inner-Iter.     Column Row Layer    Maximum-Head-Change  Column Row Layer    Maximum-Flux-Residual          L2-NORM 
          0                 1           2             2   11     1       0.5270836395E-02       6   13    1         0.2443699095E+00      0.1489295715E+01
          0                 2           2             1    2     1       0.2362757985E-02       2   11    1         0.6148888143E-01      0.4706269360E+00
          0                 3           2             9    9     1       0.1061464021E-02       1    2    1         0.2757555179E-01      0.1941408413E+00
          0                 4           2             9    9     1       0.4771205369E-03       9    9    1         0.1239003498E-01      0.8571372476E-01
          0                 5           2             9    9     1       0.2144602740E-03       9    9    1         0.5569223353E-02      0.3827615345E-01
          0                 6           1             9    9     1       0.9639655026E-04       9    9    1         0.2503298493E-02      0.1712295952E-01
          0                 7           1             9    9     1       0.4332833725E-04       9    9    1         0.1125191720E-02      0.7662392004E-02
          0                 8           1             9    9     1       0.1947504420E-04       9    9    1         0.5057504873E-03      0.3429168156E-02
          0                 9           1             9    9     1       0.8753481337E-05       9    9    1         0.2273222784E-03      0.1534748147E-02

    ------------------------------------------------
       NWT REQUIRED            9 OUTER ITERATIONS 
       AND A TOTAL OF         14 INNER ITERATIONS.
    ------------------------------------------------

 NO OUTPUT CONTROL FOR STRESS PERIOD    2   TIME STEP   28
 
 SOLVING FOR HEAD 
                                                   Max.-Head-Change                         Max.-Flux-Residual
  Residual-Control   Outer-Iter.   Inner-Iter.     Column Row Layer    Maximum-Head-Change  Column Row Layer    Maximum-Flux-Residual          L2-NORM 
          0                 1           2             9    9     1       0.5252164130E-02       6   13    1         0.2401372005E+00      0.1485040355E+01
          0                 2           2             9    9     1       0.2360836169E-02       9    9    1         0.6130646365E-01      0.4690927597E+00
          0                 3           2             9    9     1       0.1061181491E-02       9    9    1         0.2755708293E-01      0.1935016307E+00
          0                 4           2             9    9     1       0.4769902435E-03       9    9    1         0.1238672148E-01      0.8543357937E-01
          0                 5           2             9    9     1       0.2144002333E-03       9    9    1         0.5567695488E-02      0.3815212807E-01
          0                 6           1             9    9     1       0.9636890349E-04       9    9    1         0.2502594533E-02      0.1706795321E-01
          0                 7           1             9    9     1       0.4331561535E-04       9    9    1         0.1124867607E-02      0.7637986380E-02
          0                 8           1             9    9     1       0.1946919436E-04       9    9    1         0.5056013640E-03      0.3418345326E-02
          0                 9           1             9    9     1       0.8750792643E-05       9    9    1         0.2272537101E-03      0.1529942023E-02

    ------------------------------------------------
       NWT REQUIRED            9 OUTER ITERATIONS 
       AND A TOTAL OF         14 INNER ITERATIONS.
    ------------------------------------------------

 NO OUTPUT CONTROL FOR STRESS PERIOD    2   TIME STEP   29
 
 SOLVING FOR HEAD 
                                                   Max.-Head-Change                         Max.-Flux-Residual
  Residual-Control   Outer-Iter.   Inner-Iter.     Column Row Layer    Maximum-Head-Change  Column Row Layer    Maximum-Flux-Residual          L2-NORM 
          0                 1           2             2    2     1       0.7249504727E-02       4   13    1         0.3887319923E+00      0.1812521622E+01
          0                 2           2             9    9     1       0.2360198849E-02       2    2    1         0.6564708611E-01      0.4940656182E+00
          0                 3           2             9    9     1       0.1060887731E-02       9    9    1         0.2754960906E-01      0.1948298462E+00
          0                 4           2             9    9     1       0.4768549500E-03       9    9    1         0.1238327707E-01      0.8537378447E-01
          0                 5           2             9    9     1       0.2143379704E-03       9    9    1         0.5566109376E-02      0.3808409541E-01
          0                 6           1             9    9     1       0.9634027028E-04       9    9    1         0.2501864692E-02      0.1703500958E-01
          0                 7           1             9    9     1       0.4330245601E-04       9    9    1         0.1124532007E-02      0.7623163546E-02
          0                 8           1             9    9     1       0.1946315067E-04       9    9    1         0.5054471532E-03      0.3411741483E-02
          0                 9           1             9    9     1       0.8748018661E-05       9    9    1         0.2271828922E-03      0.1527007028E-02

    ------------------------------------------------
       NWT REQUIRED            9 OUTER ITERATIONS 
       AND A TOTAL OF         14 INNER ITERATIONS.
    ------------------------------------------------

 NO OUTPUT CONTROL FOR STRESS PERIOD    2   TIME STEP   30



 STREAM LISTING     PERIOD      2   STEP       30

 LAYER ROW COL. STREAM  RCH.  FLOW INTO     FLOW TO   FLOW OUT OF   OVRLND.     DIRECT     STREAM       STREAM     STREAM     STREAM   STREAMBED  STREAMBED
                SEG.NO.  NO.  STRM. RCH.    AQUIFER    STRM. RCH.    RUNOFF     PRECIP       ET          HEAD       DEPTH      WIDTH   CONDCTNC.   GRADIENT

   1    1    1     1     1    2.1342E+01  2.2763E-01   2.1115E+01  0.000E+00  0.000E+00  0.000E+00  1.09417E+03  1.121E+00  1.228E+01  5.524E-02  1.374E+00
   1    2    2     1     2    2.1115E+01  3.5183E-01   2.0763E+01  0.000E+00  0.000E+00  0.000E+00  1.08917E+03  1.116E+00  1.221E+01  8.548E-02  1.372E+00
   1    3    3     1     3    2.0763E+01  2.9938E-01   2.0464E+01  0.000E+00  0.000E+00  0.000E+00  1.08353E+03  1.111E+00  1.214E+01  7.283E-02  1.370E+00
   1    3    4     1     4    2.0464E+01  2.7512E-01   2.0189E+01  0.000E+00  0.000E+00  0.000E+00  1.07851E+03  1.106E+00  1.207E+01  6.701E-02  1.369E+00
   1    4    5     2     1    1.8189E+01  3.1142E-01   1.7877E+01  0.000E+00  0.000E+00  0.000E+00  1.07293E+03  9.926E-01  1.200E+01  7.800E-02  1.331E+00
   1    5    6     2     2    1.7877E+01  2.3901E-01   1.7638E+01  0.000E+00  0.000E+00  0.000E+00  1.06749E+03  9.835E-01  1.200E+01  6.000E-02  1.328E+00
   1    6    6     2     3    1.7638E+01  2.3853E-01   1.7400E+01  0.000E+00  0.000E+00  0.000E+00  1.06277E+03  9.755E-01  1.200E+01  6.000E-02  1.325E+00
   1    7    6     2     4    1.7400E+01  2.3805E-01   1.7161E+01  0.000E+00  0.000E+00  0.000E+00  1.05804E+03  9.676E-01  1.200E+01  6.000E-02  1.323E+00
   1    8    6     2     5    1.7161E+01  2.3757E-01   1.6924E+01  0.000E+00  0.000E+00  0.000E+00  1.05332E+03  9.595E-01  1.200E+01  6.000E-02  1.320E+00
   1    3    5     3     1    2.0000E+00  2.8252E-01   1.7175E+00  0.000E+00  0.000E+00  0.000E+00  1.07555E+03  1.909E+00  9.636E+00  7.227E-02  1.955E+00
   1    3    6     3     2    1.7175E+00  2.4905E-01   1.4684E+00  0.000E+00  0.000E+00  0.000E+00  1.07264E+03  1.727E+00  8.909E+00  6.682E-02  1.864E+00
   1    3    7     3     3    1.4684E+00  1.9718E-01   1.2712E+00  0.000E+00  0.000E+00  0.000E+00  1.06987E+03  1.555E+00  8.218E+00  5.547E-02  1.777E+00
   1    4    8     3     4    1.2712E+00  2.2567E-01   1.0456E+00  0.000E+00  0.000E+00  0.000E+00  1.06682E+03  1.364E+00  7.455E+00  6.709E-02  1.682E+00
   1    5    8     3     5    1.0456E+00  1.5790E-01   8.8768E-01  0.000E+00  0.000E+00  0.000E+00  1.06362E+03  1.164E+00  6.655E+00  4.991E-02  1.582E+00
   1    6    8     3     6    8.8768E-01  5.5980E-02   8.3170E-01  0.000E+00  0.000E+00  0.000E+00  1.06158E+03  1.036E+00  6.145E+00  1.844E-02  1.518E+00
   1    5   10     4     1    1.0000E+01  9.0919E-02   9.9091E+00  0.000E+00  0.000E+00  0.000E+00  1.07836E+03  6.368E-01  1.000E+01  2.500E-02  1.212E+00
   1    5    9     4     2    9.9091E+00  1.8158E-01   9.7275E+00  0.000E+00  0.000E+00  0.000E+00  1.07154E+03  6.315E-01  1.000E+01  5.000E-02  1.211E+00
   1    6    8     4     3    9.7275E+00  1.2689E-01   9.6006E+00  0.000E+00  0.000E+00  0.000E+00  1.06381E+03  6.256E-01  1.000E+01  3.500E-02  1.209E+00
   1    6    8     5     1    1.0432E+01  2.2686E-01   1.0205E+01  0.000E+00  0.000E+00  0.000E+00  1.05868E+03  6.790E-01  1.542E+01  6.166E-02  1.226E+00
   1    7    7     5     2    1.0205E+01  2.7894E-01   9.9265E+00  0.000E+00  0.000E+00  0.000E+00  1.05417E+03  6.732E-01  1.519E+01  7.594E-02  1.224E+00
   1    8    7     5     3    9.9265E+00  1.9221E-01   9.7343E+00  0.000E+00  0.000E+00  0.000E+00  1.04992E+03  6.676E-01  1.497E+01  5.241E-02  1.223E+00
   1    8    6     5     4    9.7343E+00  1.3577E-01   9.5985E+00  0.000E+00  0.000E+00  0.000E+00  1.04691E+03  6.637E-01  1.482E+01  3.706E-02  1.221E+00
   1    9    6     6     1    2.6522E+01  2.5569E-01   2.6267E+01  0.000E+00  0.000E+00  0.000E+00  1.04399E+03  1.261E+00  1.200E+01  6.000E-02  1.420E+00
   1   10    7     6     2    2.6267E+01  2.5525E-01   2.6012E+01  0.000E+00  0.000E+00  0.000E+00  1.03944E+03  1.254E+00  1.200E+01  6.000E-02  1.418E+00
   1   11    7     6     3    2.6012E+01  2.5481E-01   2.5757E+01  0.000E+00  0.000E+00  0.000E+00  1.03488E+03  1.247E+00  1.200E+01  6.000E-02  1.416E+00
   1   12    7     6     4    2.5757E+01  2.5436E-01   2.5502E+01  0.000E+00  0.000E+00  0.000E+00  1.03033E+03  1.239E+00  1.200E+01  6.000E-02  1.413E+00
   1   13    7     6     5    2.5502E+01  1.0659E-03   2.5501E+01  0.000E+00  0.000E+00  0.000E+00  1.02714E+03  1.236E+00  1.200E+01  2.400E-02  1.480E-02
   1   14    9     7     1    1.5000E+02  1.2877E+00   1.4871E+02  0.000E+00  0.000E+00  0.000E+00  1.03987E+03  2.288E+00  5.530E+01  5.593E-01  7.674E-01
   1   13    8     7     2    1.4871E+02  1.7920E+00   1.4692E+02  0.000E+00  0.000E+00  0.000E+00  1.03478E+03  2.280E+00  5.526E+01  6.148E-01  9.716E-01
   1   13    7     7     3    1.4692E+02  1.4465E+00   1.4547E+02  0.000E+00  0.000E+00  0.000E+00  1.02969E+03  2.271E+00  5.522E+01  5.585E-01  8.633E-01
   1   13    6     8     1    1.7098E+02  8.9004E-01   1.7009E+02  0.000E+00  0.000E+00  0.000E+00  1.02483E+03  2.956E+00  4.286E+01  4.367E-01  6.793E-01
   1   13    5     8     2    1.7009E+02  1.2944E-01   1.6996E+02  0.000E+00  0.000E+00  0.000E+00  1.01858E+03  2.952E+00  4.281E+01  4.362E-01  9.891E-02
   1   13    4     8     3    1.6996E+02 -2.4815E+00   1.7244E+02  0.000E+00  0.000E+00  0.000E+00  1.01233E+03  2.960E+00  4.292E+01  4.374E+00 -1.891E-01
   1   13    3     8     4    1.7244E+02 -3.5828E+00   1.7602E+02  0.000E+00  0.000E+00  0.000E+00  1.00610E+03  2.980E+00  4.320E+01  4.403E+00 -2.713E-01
   1   13    2     8     5    1.7602E+02 -2.4301E+00   1.7845E+02  0.000E+00  0.000E+00  0.000E+00  9.99874E+02  2.999E+00  4.348E+01  4.431E+00 -1.828E-01
   1   13    1     8     6    1.7845E+02 -1.8597E+00   1.8031E+02  0.000E+00  0.000E+00  0.000E+00  9.94887E+02  3.012E+00  4.368E+01  2.671E+00 -2.321E-01
   1    6    8     9     1    0.0000E+00  0.0000E+00   0.0000E+00  0.000E+00  0.000E+00  0.000E+00  1.07850E+03  0.000E+00  4.000E+00  0.000E+00  1.000E+00





UNSATURATED ZONE PACKAGE VOLUMETRIC BUDGET FOR  TIME STEP    30 STRESS PERIOD    2
  ------------------------------------------------------------------------------



     CUMULATIVE VOLUMES      L**3       RATES FOR THIS TIME STEP      L**3/T
     ------------------                 ------------------------

           IN:                                      IN:
           ---                                      ---
        INFILTRATION =      151807.6534          INFILTRATION =       0.0000E+00

          OUT:                                     OUT:
          ----                                     ----
              UZF ET =      762113.9526                UZF ET =           0.2900
        UZF RECHARGE =    72870431.0688          UZF RECHARGE =          27.6050

            IN - OUT =   -73480737.3681              IN - OUT =         -27.8950

          STORAGE:                                 STORAGE:
          --------                                 --------
      STORAGE CHANGE =   -73476633.8990        STORAGE CHANGE =         -27.8948

 PERCENT DISCREPANCY IS DIFFERENCE BETWEEN IN-OUT MINUS CHANGE IN STORAGE
 DIVIDED BY THE AVERAGE OF IN AND OUT TIMES 100

 PERCENT DISCREPANCY =          -0.00     PERCENT DISCREPANCY =          -0.00






1
  VOLUMETRIC BUDGET FOR ENTIRE MODEL AT END OF TIME STEP   30, STRESS PERIOD   2
  ------------------------------------------------------------------------------

     CUMULATIVE VOLUMES      L**3       RATES FOR THIS TIME STEP      L**3/T
     ------------------                 ------------------------

           IN:                                      IN:
           ---                                      ---
             STORAGE     =           0.0000               STORAGE     =           0.0000
       CONSTANT HEAD     =           0.0000         CONSTANT HEAD     =           0.0000
               WELLS     =           0.0000                 WELLS     =           0.0000
     HEAD DEP BOUNDS     =      771318.3750       HEAD DEP BOUNDS     =           0.2825
      STREAM LEAKAGE     =    28168500.0000        STREAM LEAKAGE     =          11.3868
        UZF RECHARGE     =    72870440.0000          UZF RECHARGE     =          27.6050
               GW ET     =           0.0000                 GW ET     =           0.0000
     SURFACE LEAKAGE     =           0.0000       SURFACE LEAKAGE     =           0.0000
    SUPPLEMENTARY WELLS  =           0.0000      SUPPLEMENTARY WELLS  =           0.0000

                TOTAL IN =   101810256.0000                  TOTAL IN =          39.2743

          OUT:                                     OUT:
          ----                                     ----
             STORAGE     =    70681544.0000               STORAGE     =          28.6269
       CONSTANT HEAD     =           0.0000         CONSTANT HEAD     =           0.0000
               WELLS     =           0.0000                 WELLS     =           0.0000
     HEAD DEP BOUNDS     =      777680.4375       HEAD DEP BOUNDS     =           0.2882
      STREAM LEAKAGE     =    30155770.0000        STREAM LEAKAGE     =          10.3541
        UZF RECHARGE     =           0.0000          UZF RECHARGE     =           0.0000
               GW ET     =      149509.9688                 GW ET     =       3.0359E-10
     SURFACE LEAKAGE     =           0.0000       SURFACE LEAKAGE     =           0.0000
    SUPPLEMENTARY WELLS  =       31277.1836      SUPPLEMENTARY WELLS  =           0.0000

               TOTAL OUT =   101795784.0000                 TOTAL OUT =          39.2691

                IN - OUT =       14472.0000                  IN - OUT =       5.2071E-03

     PERCENT DISCREPANCY =           0.01         PERCENT DISCREPANCY =           0.01






         TIME SUMMARY AT END OF TIME STEP   30 IN STRESS PERIOD    2
                    SECONDS     MINUTES      HOURS       DAYS        YEARS
                    -----------------------------------------------------------
   TIME STEP LENGTH  87600.      1460.0      24.333      1.0139     2.77588E-03
 STRESS PERIOD TIME 2.62800E+06  43800.      730.00      30.417     8.32763E-02
         TOTAL TIME 2.71440E+06  45240.      754.00      31.417     8.60141E-02
1
1
                            STRESS PERIOD NO.    3, LENGTH =   2628000.    
                            -----------------------------------------------

                              NUMBER OF TIME STEPS =    30

                               MULTIPLIER FOR DELT =     1.000

                            INITIAL TIME STEP SIZE =   87600.00    

 WELL NO.  LAYER   ROW   COL   STRESS RATE         
 --------------------------------------------------
      1      1      6      4       0.000    
      2      1      6      7       0.000    
      3      1      7      4       0.000    
      4      1      7      5       0.000    
      5      1      8      4       0.000    
      6      1      8      5       0.000    
      7      1      9      4       0.000    
      8      1      9      5       0.000    
      9      1     10      4       0.000    
     10      1     10      5       0.000    

     10 WELLS

 REUSING NON-PARAMETER GHB CELLS FROM LAST STRESS PERIOD

      2 GHB CELLS

 REUSING STREAM SEGMENT DATA FROM LAST STRESS PERIOD



            AREAL INFILTRATION RATE
 READING ON UNIT   19 WITH FORMAT: (10F4.0)            

            1           2           3           4           5           6           7           8           9          10
 ........................................................................................................................
   1    0.000       0.000       0.000       0.000       0.000       0.000       0.000       0.000       0.000       0.000    
   2    0.000       0.000       0.000       0.000       0.000       0.000       0.000       0.000       0.000       0.000    
   3    0.000       0.000       0.000       0.000       0.000       0.000       0.000       0.000       0.000       0.000    
   4    0.000       0.000       0.000       0.000       0.000       0.000       0.000       0.000       0.000       0.000    
   5    0.000       0.000       0.000       0.000       0.000       0.000       0.000       0.000       0.000       0.000    
   6    0.000       0.000       0.000       0.000       0.000       0.000       0.000       0.000       0.000       0.000    
   7    0.000       0.000       0.000       0.000       0.000       0.000       0.000       0.000       0.000       0.000    
   8    0.000       0.000       0.000       0.000       0.000       0.000       0.000       0.000       0.000       0.000    
   9    0.000       0.000       0.000       0.000       0.000       0.000       0.000       0.000       0.000       0.000    
  10    0.000       0.000       0.000       0.000       0.000       0.000       0.000       0.000       0.000       0.000    
  11    0.000       0.000       0.000       0.000       0.000       0.000       0.000       0.000       0.000       0.000    
  12    0.000       0.000       0.000       0.000       0.000       0.000       0.000       0.000       0.000       0.000    
  13    0.000       0.000       0.000       0.000       0.000       0.000       0.000       0.000       0.000       0.000    
  14    0.000       0.000       0.000       0.000       0.000       0.000       0.000       0.000       0.000       0.000    
  15    0.000       0.000       0.000       0.000       0.000       0.000       0.000       0.000       0.000       0.000    

                  ET RATE =  1.000000E-10

 USING ET EXTINCTION DEPTH FROM PREVIOUS STRESS PERIOD. CURRENT PERIOD IS:       3

 USING EXTINCTION WATER CONTENT FROM PREVIOUS STRESS PERIOD. CURRENT PERIOD IS:       3

 PROCESSING AGO STRESS PERIOD DATA

 READING AGO STRESS PERIOD DATA

 READING IRRIGATION STREAM

 READING IRRIGATION WELL

 READING SUPPLEMENTAL WEL

 END PROCESSING AGO STRESS PERIOD DATA OPTIONS
 
 SOLVING FOR HEAD 
                                                   Max.-Head-Change                         Max.-Flux-Residual
  Residual-Control   Outer-Iter.   Inner-Iter.     Column Row Layer    Maximum-Head-Change  Column Row Layer    Maximum-Flux-Residual          L2-NORM 
          0                 1           2             2    2     1       0.7312224404E-02       2    2    1         0.3812572134E+00      0.1800730395E+01
          0                 2           2             9    9     1       0.2359536789E-02       2    2    1         0.6621525525E-01      0.4936797147E+00
          0                 3           2             9    9     1       0.1060582934E-02       9    9    1         0.2754184686E-01      0.1944499390E+00
          0                 4           2             9    9     1       0.4767147304E-03       9    9    1         0.1237970403E-01      0.8518026901E-01
          0                 5           2             9    9     1       0.2142735068E-03       9    9    1         0.5564465822E-02      0.3799612803E-01
          0                 6           1             9    9     1       0.9631065288E-04       9    9    1         0.2501109186E-02      0.1699579589E-01
          0                 7           1             9    9     1       0.4328885747E-04       9    9    1         0.1124184947E-02      0.7605724335E-02
          0                 8           1             9    9     1       0.1945691040E-04       9    9    1         0.5052878156E-03      0.3403980546E-02
          0                 9           1             9    9     1       0.8745156641E-05       9    9    1         0.2271097833E-03      0.1523555708E-02

    ------------------------------------------------
       NWT REQUIRED            9 OUTER ITERATIONS 
       AND A TOTAL OF         14 INNER ITERATIONS.
    ------------------------------------------------

 OUTPUT CONTROL FOR STRESS PERIOD    3   TIME STEP    1
    PRINT BUDGET
    SAVE BUDGET
 UBUDSV SAVING "         STORAGE" ON UNIT102 AT TIME STEP     1, STRESS PERIOD    3
 UBUDSV SAVING "   CONSTANT HEAD" ON UNIT102 AT TIME STEP     1, STRESS PERIOD    3
 UBUDSV SAVING "FLOW RIGHT FACE " ON UNIT102 AT TIME STEP     1, STRESS PERIOD    3
 UBUDSV SAVING "FLOW FRONT FACE " ON UNIT102 AT TIME STEP     1, STRESS PERIOD    3

  HEAD DEP BOUNDS   PERIOD    3   STEP     1
 BOUNDARY      1   LAYER   1   ROW    13   COL     1   RATE   -0.288359    
 BOUNDARY      2   LAYER   1   ROW    14   COL     9   RATE    0.282380    



 STREAM LISTING     PERIOD      3   STEP        1

 LAYER ROW COL. STREAM  RCH.  FLOW INTO     FLOW TO   FLOW OUT OF   OVRLND.     DIRECT     STREAM       STREAM     STREAM     STREAM   STREAMBED  STREAMBED
                SEG.NO.  NO.  STRM. RCH.    AQUIFER    STRM. RCH.    RUNOFF     PRECIP       ET          HEAD       DEPTH      WIDTH   CONDCTNC.   GRADIENT

   1    1    1     1     1    2.2000E+01  2.3088E-01   2.1769E+01  0.000E+00  0.000E+00  0.000E+00  1.09418E+03  1.132E+00  1.242E+01  5.588E-02  1.377E+00
   1    2    2     1     2    2.1769E+01  3.5689E-01   2.1412E+01  0.000E+00  0.000E+00  0.000E+00  1.08919E+03  1.127E+00  1.235E+01  8.648E-02  1.376E+00
   1    3    3     1     3    2.1412E+01  3.0372E-01   2.1109E+01  0.000E+00  0.000E+00  0.000E+00  1.08354E+03  1.121E+00  1.228E+01  7.369E-02  1.374E+00
   1    3    4     1     4    2.1109E+01  2.7914E-01   2.0829E+01  0.000E+00  0.000E+00  0.000E+00  1.07852E+03  1.117E+00  1.222E+01  6.781E-02  1.372E+00
   1    4    5     2     1    1.8829E+01  3.1306E-01   1.8516E+01  0.000E+00  0.000E+00  0.000E+00  1.07295E+03  1.014E+00  1.200E+01  7.800E-02  1.338E+00
   1    5    6     2     2    1.8516E+01  2.4027E-01   1.8276E+01  0.000E+00  0.000E+00  0.000E+00  1.06751E+03  1.005E+00  1.200E+01  6.000E-02  1.335E+00
   1    6    6     2     3    1.8276E+01  2.3980E-01   1.8036E+01  0.000E+00  0.000E+00  0.000E+00  1.06279E+03  9.967E-01  1.200E+01  6.000E-02  1.332E+00
   1    7    6     2     4    1.8036E+01  2.3933E-01   1.7797E+01  0.000E+00  0.000E+00  0.000E+00  1.05806E+03  9.888E-01  1.200E+01  6.000E-02  1.330E+00
   1    8    6     2     5    1.7797E+01  2.3885E-01   1.7558E+01  0.000E+00  0.000E+00  0.000E+00  1.05334E+03  9.808E-01  1.200E+01  6.000E-02  1.327E+00
   1    3    5     3     1    2.0000E+00  2.8252E-01   1.7175E+00  0.000E+00  0.000E+00  0.000E+00  1.07555E+03  1.909E+00  9.636E+00  7.227E-02  1.955E+00
   1    3    6     3     2    1.7175E+00  2.4905E-01   1.4684E+00  0.000E+00  0.000E+00  0.000E+00  1.07264E+03  1.727E+00  8.909E+00  6.682E-02  1.864E+00
   1    3    7     3     3    1.4684E+00  1.9718E-01   1.2712E+00  0.000E+00  0.000E+00  0.000E+00  1.06987E+03  1.555E+00  8.218E+00  5.547E-02  1.777E+00
   1    4    8     3     4    1.2712E+00  2.2567E-01   1.0456E+00  0.000E+00  0.000E+00  0.000E+00  1.06682E+03  1.364E+00  7.455E+00  6.709E-02  1.682E+00
   1    5    8     3     5    1.0456E+00  1.5790E-01   8.8768E-01  0.000E+00  0.000E+00  0.000E+00  1.06362E+03  1.164E+00  6.655E+00  4.991E-02  1.582E+00
   1    6    8     3     6    8.8768E-01  5.5980E-02   8.3170E-01  0.000E+00  0.000E+00  0.000E+00  1.06158E+03  1.036E+00  6.145E+00  1.844E-02  1.518E+00
   1    5   10     4     1    1.0000E+01  9.0919E-02   9.9091E+00  0.000E+00  0.000E+00  0.000E+00  1.07836E+03  6.368E-01  1.000E+01  2.500E-02  1.212E+00
   1    5    9     4     2    9.9091E+00  1.8158E-01   9.7275E+00  0.000E+00  0.000E+00  0.000E+00  1.07154E+03  6.315E-01  1.000E+01  5.000E-02  1.211E+00
   1    6    8     4     3    9.7275E+00  1.2689E-01   9.6006E+00  0.000E+00  0.000E+00  0.000E+00  1.06381E+03  6.256E-01  1.000E+01  3.500E-02  1.209E+00
   1    6    8     5     1    1.0432E+01  2.2686E-01   1.0205E+01  0.000E+00  0.000E+00  0.000E+00  1.05868E+03  6.790E-01  1.542E+01  6.166E-02  1.226E+00
   1    7    7     5     2    1.0205E+01  2.7894E-01   9.9265E+00  0.000E+00  0.000E+00  0.000E+00  1.05417E+03  6.732E-01  1.519E+01  7.594E-02  1.224E+00
   1    8    7     5     3    9.9265E+00  1.9221E-01   9.7343E+00  0.000E+00  0.000E+00  0.000E+00  1.04992E+03  6.676E-01  1.497E+01  5.241E-02  1.223E+00
   1    8    6     5     4    9.7343E+00  1.3577E-01   9.5985E+00  0.000E+00  0.000E+00  0.000E+00  1.04691E+03  6.637E-01  1.482E+01  3.706E-02  1.221E+00
   1    9    6     6     1    2.7157E+01  2.5677E-01   2.6900E+01  0.000E+00  0.000E+00  0.000E+00  1.04401E+03  1.280E+00  1.200E+01  6.000E-02  1.427E+00
   1   10    7     6     2    2.6900E+01  2.5634E-01   2.6643E+01  0.000E+00  0.000E+00  0.000E+00  1.03945E+03  1.272E+00  1.200E+01  6.000E-02  1.424E+00
   1   11    7     6     3    2.6643E+01  2.5590E-01   2.6388E+01  0.000E+00  0.000E+00  0.000E+00  1.03490E+03  1.265E+00  1.200E+01  6.000E-02  1.422E+00
   1   12    7     6     4    2.6388E+01  2.5546E-01   2.6132E+01  0.000E+00  0.000E+00  0.000E+00  1.03035E+03  1.258E+00  1.200E+01  6.000E-02  1.419E+00
   1   13    7     6     5    2.6132E+01  1.3319E-03   2.6131E+01  0.000E+00  0.000E+00  0.000E+00  1.02716E+03  1.254E+00  1.200E+01  2.400E-02  1.850E-02
   1   14    9     7     1    1.5000E+02  1.2862E+00   1.4871E+02  0.000E+00  0.000E+00  0.000E+00  1.03987E+03  2.288E+00  5.530E+01  5.593E-01  7.665E-01
   1   13    8     7     2    1.4871E+02  1.7898E+00   1.4692E+02  0.000E+00  0.000E+00  0.000E+00  1.03478E+03  2.280E+00  5.526E+01  6.148E-01  9.704E-01
   1   13    7     7     3    1.4692E+02  1.4425E+00   1.4548E+02  0.000E+00  0.000E+00  0.000E+00  1.02969E+03  2.271E+00  5.522E+01  5.585E-01  8.610E-01
   1   13    6     8     1    1.7161E+02  8.8999E-01   1.7072E+02  0.000E+00  0.000E+00  0.000E+00  1.02483E+03  2.960E+00  4.292E+01  4.373E-01  6.783E-01
   1   13    5     8     2    1.7072E+02  1.2933E-01   1.7059E+02  0.000E+00  0.000E+00  0.000E+00  1.01858E+03  2.956E+00  4.287E+01  4.368E-01  9.868E-02
   1   13    4     8     3    1.7059E+02 -2.4979E+00   1.7309E+02  0.000E+00  0.000E+00  0.000E+00  1.01234E+03  2.964E+00  4.298E+01  4.380E+00 -1.901E-01
   1   13    3     8     4    1.7309E+02 -3.5967E+00   1.7669E+02  0.000E+00  0.000E+00  0.000E+00  1.00611E+03  2.984E+00  4.326E+01  4.409E+00 -2.719E-01
   1   13    2     8     5    1.7669E+02 -2.4485E+00   1.7914E+02  0.000E+00  0.000E+00  0.000E+00  9.99878E+02  3.003E+00  4.354E+01  4.437E+00 -1.839E-01
   1   13    1     8     6    1.7914E+02 -1.8635E+00   1.8100E+02  0.000E+00  0.000E+00  0.000E+00  9.94892E+02  3.017E+00  4.374E+01  2.674E+00 -2.323E-01
   1    6    8     9     1    0.0000E+00  0.0000E+00   0.0000E+00  0.000E+00  0.000E+00  0.000E+00  1.07850E+03  0.000E+00  4.000E+00  0.000E+00  1.000E+00



 UBDSV3 SAVING "     NETRECHARGE" ON UNIT 100 AT TIME STEP     1, STRESS PERIOD   3
 UBDSV3 SAVING "    NETDISCHARGE" ON UNIT 101 AT TIME STEP     1, STRESS PERIOD   3
 UBDSV3 SAVING "           GW ET" ON UNIT  61 AT TIME STEP     1, STRESS PERIOD   3
 UBDSV3 SAVING "    UZF RECHARGE" ON UNIT  61 AT TIME STEP     1, STRESS PERIOD   3
 UBDSV3 SAVING " SURFACE LEAKAGE" ON UNIT  61 AT TIME STEP     1, STRESS PERIOD   3
 UBDSV3 SAVING "       HORT+DUNN" ON UNIT  61 AT TIME STEP     1, STRESS PERIOD   3
 UBDSV3 SAVING "  STORAGE CHANGE" ON UNIT  61 AT TIME STEP     1, STRESS PERIOD   3


UNSATURATED ZONE PACKAGE VOLUMETRIC BUDGET FOR  TIME STEP     1 STRESS PERIOD    3
  ------------------------------------------------------------------------------



     CUMULATIVE VOLUMES      L**3       RATES FOR THIS TIME STEP      L**3/T
     ------------------                 ------------------------

           IN:                                      IN:
           ---                                      ---
        INFILTRATION =      151807.6534          INFILTRATION =       0.0000E+00

          OUT:                                     OUT:
          ----                                     ----
              UZF ET =      787517.9526                UZF ET =           0.2900
        UZF RECHARGE =    75286791.5698          UZF RECHARGE =          27.5840

            IN - OUT =   -75922501.8691              IN - OUT =         -27.8740

          STORAGE:                                 STORAGE:
          --------                                 --------
      STORAGE CHANGE =   -75918381.9681        STORAGE CHANGE =         -27.8738

 PERCENT DISCREPANCY IS DIFFERENCE BETWEEN IN-OUT MINUS CHANGE IN STORAGE
 DIVIDED BY THE AVERAGE OF IN AND OUT TIMES 100

 PERCENT DISCREPANCY =          -0.00     PERCENT DISCREPANCY =          -0.00






1
  VOLUMETRIC BUDGET FOR ENTIRE MODEL AT END OF TIME STEP    1, STRESS PERIOD   3
  ------------------------------------------------------------------------------

     CUMULATIVE VOLUMES      L**3       RATES FOR THIS TIME STEP      L**3/T
     ------------------                 ------------------------

           IN:                                      IN:
           ---                                      ---
             STORAGE     =           0.0000               STORAGE     =           0.0000
       CONSTANT HEAD     =           0.0000         CONSTANT HEAD     =           0.0000
               WELLS     =           0.0000                 WELLS     =           0.0000
     HEAD DEP BOUNDS     =      796054.8125       HEAD DEP BOUNDS     =           0.2824
      STREAM LEAKAGE     =    29167752.0000        STREAM LEAKAGE     =          11.4070
        UZF RECHARGE     =    75286800.0000          UZF RECHARGE     =          27.5840
               GW ET     =           0.0000                 GW ET     =           0.0000
     SURFACE LEAKAGE     =           0.0000       SURFACE LEAKAGE     =           0.0000
    SUPPLEMENTARY WELLS  =           0.0000      SUPPLEMENTARY WELLS  =           0.0000

                TOTAL IN =   105250608.0000                  TOTAL IN =          39.2734

          OUT:                                     OUT:
          ----                                     ----
             STORAGE     =    73184560.0000               STORAGE     =          28.5732
       CONSTANT HEAD     =           0.0000         CONSTANT HEAD     =           0.0000
               WELLS     =           0.0000                 WELLS     =           0.0000
     HEAD DEP BOUNDS     =      802940.6875       HEAD DEP BOUNDS     =           0.2884
      STREAM LEAKAGE     =    31067390.0000        STREAM LEAKAGE     =          10.4066
        UZF RECHARGE     =           0.0000          UZF RECHARGE     =           0.0000
               GW ET     =      149509.9688                 GW ET     =       3.0360E-10
     SURFACE LEAKAGE     =           0.0000       SURFACE LEAKAGE     =           0.0000
    SUPPLEMENTARY WELLS  =       31277.1836      SUPPLEMENTARY WELLS  =           0.0000

               TOTAL OUT =   105235688.0000                 TOTAL OUT =          39.2682

                IN - OUT =       14920.0000                  IN - OUT =       5.1994E-03

     PERCENT DISCREPANCY =           0.01         PERCENT DISCREPANCY =           0.01






         TIME SUMMARY AT END OF TIME STEP    1 IN STRESS PERIOD    3
                    SECONDS     MINUTES      HOURS       DAYS        YEARS
                    -----------------------------------------------------------
   TIME STEP LENGTH  87600.      1460.0      24.333      1.0139     2.77588E-03
 STRESS PERIOD TIME  87600.      1460.0      24.333      1.0139     2.77588E-03
         TOTAL TIME 2.80200E+06  46700.      778.33      32.431     8.87900E-02
1
 
 SOLVING FOR HEAD 
                                                   Max.-Head-Change                         Max.-Flux-Residual
  Residual-Control   Outer-Iter.   Inner-Iter.     Column Row Layer    Maximum-Head-Change  Column Row Layer    Maximum-Flux-Residual          L2-NORM 
          0                 1           2             2    2     1       0.7277875936E-02       2    2    1         0.3794467030E+00      0.1779156021E+01
          0                 2           2             9    9     1       0.2358896712E-02       2    2    1         0.6590617630E-01      0.4915058784E+00
          0                 3           2             9    9     1       0.1060287997E-02       9    9    1         0.2753434114E-01      0.1939395102E+00
          0                 4           2             9    9     1       0.4765789327E-03       9    9    1         0.1237624602E-01      0.8497697010E-01
          0                 5           2             9    9     1       0.2142110271E-03       9    9    1         0.5562873874E-02      0.3790693756E-01
          0                 6           1             9    9     1       0.9628192612E-04       9    9    1         0.2500376832E-02      0.1695620946E-01
          0                 7           1             9    9     1       0.4327565811E-04       9    9    1         0.1123848264E-02      0.7588130253E-02
          0                 8           1             9    9     1       0.1945084921E-04       9    9    1         0.5051331342E-03      0.3396159094E-02
          0                 9           1             9    9     1       0.8742375156E-05       9    9    1         0.2270387613E-03      0.1520078790E-02

    ------------------------------------------------
       NWT REQUIRED            9 OUTER ITERATIONS 
       AND A TOTAL OF         14 INNER ITERATIONS.
    ------------------------------------------------

 NO OUTPUT CONTROL FOR STRESS PERIOD    3   TIME STEP    2
 
 SOLVING FOR HEAD 
                                                   Max.-Head-Change                         Max.-Flux-Residual
  Residual-Control   Outer-Iter.   Inner-Iter.     Column Row Layer    Maximum-Head-Change  Column Row Layer    Maximum-Flux-Residual          L2-NORM 
          0                 1           2             2    2     1       0.7244246619E-02       2    2    1         0.3776741565E+00      0.1758730634E+01
          0                 2           2             9    9     1       0.2358185878E-02       2    2    1         0.6560356272E-01      0.4894931655E+00
          0                 3           2             9    9     1       0.1059961482E-02       9    9    1         0.2752601058E-01      0.1934453628E+00
          0                 4           2             9    9     1       0.4764290419E-03       9    9    1         0.1237241989E-01      0.8477570115E-01
          0                 5           2             9    9     1       0.2141422575E-03       9    9    1         0.5561117635E-02      0.3781864616E-01
          0                 6           1             9    9     1       0.9625039212E-04       9    9    1         0.2499571155E-02      0.1691717965E-01
          0                 7           1             9    9     1       0.4326120594E-04       9    9    1         0.1123478862E-02      0.7570863170E-02
          0                 8           1             9    9     1       0.1944422902E-04       9    9    1         0.5049638506E-03      0.3388518586E-02
          0                 9           1             9    9     1       0.8739344060E-05       9    9    1         0.2269612239E-03      0.1516700357E-02

    ------------------------------------------------
       NWT REQUIRED            9 OUTER ITERATIONS 
       AND A TOTAL OF         14 INNER ITERATIONS.
    ------------------------------------------------

 NO OUTPUT CONTROL FOR STRESS PERIOD    3   TIME STEP    3
 
 SOLVING FOR HEAD 
                                                   Max.-Head-Change                         Max.-Flux-Residual
  Residual-Control   Outer-Iter.   Inner-Iter.     Column Row Layer    Maximum-Head-Change  Column Row Layer    Maximum-Flux-Residual          L2-NORM 
          0                 1           2             2    2     1       0.7211320418E-02       2    2    1         0.3759386680E+00      0.1741784041E+01
          0                 2           2             9    9     1       0.2357451192E-02       2    2    1         0.6530727634E-01      0.4875363173E+00
          0                 3           2             9    9     1       0.1059624260E-02       9    9    1         0.2751740168E-01      0.1929445887E+00
          0                 4           2             9    9     1       0.4762743454E-03       9    9    1         0.1236846882E-01      0.8457358392E-01
          0                 5           2             9    9     1       0.2140713311E-03       9    9    1         0.5559305313E-02      0.3772989976E-01
          0                 6           1             9    9     1       0.9621789044E-04       9    9    1         0.2498740311E-02      0.1687778586E-01
          0                 7           1             9    9     1       0.4324631958E-04       9    9    1         0.1123098162E-02      0.7553346303E-02
          0                 8           1             8    2     1       0.1943927332E-04       8    2    1         0.5047950764E-03      0.3380729950E-02
          0                 9           1             8    2     1       0.8738018972E-05       8    2    1         0.2269073903E-03      0.1513234972E-02

    ------------------------------------------------
       NWT REQUIRED            9 OUTER ITERATIONS 
       AND A TOTAL OF         14 INNER ITERATIONS.
    ------------------------------------------------

 NO OUTPUT CONTROL FOR STRESS PERIOD    3   TIME STEP    4
 
 SOLVING FOR HEAD 
                                                   Max.-Head-Change                         Max.-Flux-Residual
  Residual-Control   Outer-Iter.   Inner-Iter.     Column Row Layer    Maximum-Head-Change  Column Row Layer    Maximum-Flux-Residual          L2-NORM 
          0                 1           2             2    2     1       0.7179081759E-02       2    2    1         0.3742394559E+00      0.1727660921E+01
          0                 2           2             9    9     1       0.2356693325E-02       2    2    1         0.6501717308E-01      0.4858974315E+00
          0                 3           2             9    9     1       0.1059276772E-02       9    9    1         0.2750852293E-01      0.1924675177E+00
          0                 4           2             9    9     1       0.4761151037E-03       9    9    1         0.1236439825E-01      0.8437275498E-01
          0                 5           2             8    2     1       0.2140023359E-03       9    9    1         0.5557440080E-02      0.3764110741E-01
          0                 6           1             8    2     1       0.9619514134E-04       8    2    1         0.2497971167E-02      0.1683832304E-01
          0                 7           1             8    2     1       0.4324013809E-04       8    2    1         0.1122850463E-02      0.7535800598E-02
          0                 8           1             8    2     1       0.1943660039E-04       8    2    1         0.5047260635E-03      0.3372925733E-02
          0                 9           1             8    2     1       0.8736808434E-05       8    2    1         0.2268761432E-03      0.1509763634E-02

    ------------------------------------------------
       NWT REQUIRED            9 OUTER ITERATIONS 
       AND A TOTAL OF         14 INNER ITERATIONS.
    ------------------------------------------------

 OUTPUT CONTROL FOR STRESS PERIOD    3   TIME STEP    5
    PRINT BUDGET
    SAVE BUDGET
 UBUDSV SAVING "         STORAGE" ON UNIT102 AT TIME STEP     5, STRESS PERIOD    3
 UBUDSV SAVING "   CONSTANT HEAD" ON UNIT102 AT TIME STEP     5, STRESS PERIOD    3
 UBUDSV SAVING "FLOW RIGHT FACE " ON UNIT102 AT TIME STEP     5, STRESS PERIOD    3
 UBUDSV SAVING "FLOW FRONT FACE " ON UNIT102 AT TIME STEP     5, STRESS PERIOD    3

  HEAD DEP BOUNDS   PERIOD    3   STEP     5
 BOUNDARY      1   LAYER   1   ROW    13   COL     1   RATE   -0.288952    
 BOUNDARY      2   LAYER   1   ROW    14   COL     9   RATE    0.281971    



 STREAM LISTING     PERIOD      3   STEP        5

 LAYER ROW COL. STREAM  RCH.  FLOW INTO     FLOW TO   FLOW OUT OF   OVRLND.     DIRECT     STREAM       STREAM     STREAM     STREAM   STREAMBED  STREAMBED
                SEG.NO.  NO.  STRM. RCH.    AQUIFER    STRM. RCH.    RUNOFF     PRECIP       ET          HEAD       DEPTH      WIDTH   CONDCTNC.   GRADIENT

   1    1    1     1     1    2.2000E+01  2.3088E-01   2.1769E+01  0.000E+00  0.000E+00  0.000E+00  1.09418E+03  1.132E+00  1.242E+01  5.588E-02  1.377E+00
   1    2    2     1     2    2.1769E+01  3.5689E-01   2.1412E+01  0.000E+00  0.000E+00  0.000E+00  1.08919E+03  1.127E+00  1.235E+01  8.648E-02  1.376E+00
   1    3    3     1     3    2.1412E+01  3.0372E-01   2.1109E+01  0.000E+00  0.000E+00  0.000E+00  1.08354E+03  1.121E+00  1.228E+01  7.369E-02  1.374E+00
   1    3    4     1     4    2.1109E+01  2.7914E-01   2.0829E+01  0.000E+00  0.000E+00  0.000E+00  1.07852E+03  1.117E+00  1.222E+01  6.781E-02  1.372E+00
   1    4    5     2     1    1.8829E+01  3.1306E-01   1.8516E+01  0.000E+00  0.000E+00  0.000E+00  1.07295E+03  1.014E+00  1.200E+01  7.800E-02  1.338E+00
   1    5    6     2     2    1.8516E+01  2.4027E-01   1.8276E+01  0.000E+00  0.000E+00  0.000E+00  1.06751E+03  1.005E+00  1.200E+01  6.000E-02  1.335E+00
   1    6    6     2     3    1.8276E+01  2.3980E-01   1.8036E+01  0.000E+00  0.000E+00  0.000E+00  1.06279E+03  9.967E-01  1.200E+01  6.000E-02  1.332E+00
   1    7    6     2     4    1.8036E+01  2.3933E-01   1.7797E+01  0.000E+00  0.000E+00  0.000E+00  1.05806E+03  9.888E-01  1.200E+01  6.000E-02  1.330E+00
   1    8    6     2     5    1.7797E+01  2.3885E-01   1.7558E+01  0.000E+00  0.000E+00  0.000E+00  1.05334E+03  9.808E-01  1.200E+01  6.000E-02  1.327E+00
   1    3    5     3     1    2.0000E+00  2.8252E-01   1.7175E+00  0.000E+00  0.000E+00  0.000E+00  1.07555E+03  1.909E+00  9.636E+00  7.227E-02  1.955E+00
   1    3    6     3     2    1.7175E+00  2.4905E-01   1.4684E+00  0.000E+00  0.000E+00  0.000E+00  1.07264E+03  1.727E+00  8.909E+00  6.682E-02  1.864E+00
   1    3    7     3     3    1.4684E+00  1.9718E-01   1.2712E+00  0.000E+00  0.000E+00  0.000E+00  1.06987E+03  1.555E+00  8.218E+00  5.547E-02  1.777E+00
   1    4    8     3     4    1.2712E+00  2.2567E-01   1.0456E+00  0.000E+00  0.000E+00  0.000E+00  1.06682E+03  1.364E+00  7.455E+00  6.709E-02  1.682E+00
   1    5    8     3     5    1.0456E+00  1.5790E-01   8.8768E-01  0.000E+00  0.000E+00  0.000E+00  1.06362E+03  1.164E+00  6.655E+00  4.991E-02  1.582E+00
   1    6    8     3     6    8.8768E-01  5.5980E-02   8.3170E-01  0.000E+00  0.000E+00  0.000E+00  1.06158E+03  1.036E+00  6.145E+00  1.844E-02  1.518E+00
   1    5   10     4     1    1.0000E+01  9.0919E-02   9.9091E+00  0.000E+00  0.000E+00  0.000E+00  1.07836E+03  6.368E-01  1.000E+01  2.500E-02  1.212E+00
   1    5    9     4     2    9.9091E+00  1.8158E-01   9.7275E+00  0.000E+00  0.000E+00  0.000E+00  1.07154E+03  6.315E-01  1.000E+01  5.000E-02  1.211E+00
   1    6    8     4     3    9.7275E+00  1.2689E-01   9.6006E+00  0.000E+00  0.000E+00  0.000E+00  1.06381E+03  6.256E-01  1.000E+01  3.500E-02  1.209E+00
   1    6    8     5     1    1.0432E+01  2.2686E-01   1.0205E+01  0.000E+00  0.000E+00  0.000E+00  1.05868E+03  6.790E-01  1.542E+01  6.166E-02  1.226E+00
   1    7    7     5     2    1.0205E+01  2.7894E-01   9.9265E+00  0.000E+00  0.000E+00  0.000E+00  1.05417E+03  6.732E-01  1.519E+01  7.594E-02  1.224E+00
   1    8    7     5     3    9.9265E+00  1.9221E-01   9.7343E+00  0.000E+00  0.000E+00  0.000E+00  1.04992E+03  6.676E-01  1.497E+01  5.241E-02  1.223E+00
   1    8    6     5     4    9.7343E+00  1.3577E-01   9.5985E+00  0.000E+00  0.000E+00  0.000E+00  1.04691E+03  6.637E-01  1.482E+01  3.706E-02  1.221E+00
   1    9    6     6     1    2.7157E+01  2.5677E-01   2.6900E+01  0.000E+00  0.000E+00  0.000E+00  1.04401E+03  1.280E+00  1.200E+01  6.000E-02  1.427E+00
   1   10    7     6     2    2.6900E+01  2.5634E-01   2.6643E+01  0.000E+00  0.000E+00  0.000E+00  1.03945E+03  1.272E+00  1.200E+01  6.000E-02  1.424E+00
   1   11    7     6     3    2.6643E+01  2.5590E-01   2.6388E+01  0.000E+00  0.000E+00  0.000E+00  1.03490E+03  1.265E+00  1.200E+01  6.000E-02  1.422E+00
   1   12    7     6     4    2.6388E+01  2.5546E-01   2.6132E+01  0.000E+00  0.000E+00  0.000E+00  1.03035E+03  1.258E+00  1.200E+01  6.000E-02  1.419E+00
   1   13    7     6     5    2.6132E+01  6.8194E-04   2.6131E+01  0.000E+00  0.000E+00  0.000E+00  1.02716E+03  1.254E+00  1.200E+01  2.400E-02  9.471E-03
   1   14    9     7     1    1.5000E+02  1.2802E+00   1.4872E+02  0.000E+00  0.000E+00  0.000E+00  1.03987E+03  2.288E+00  5.530E+01  5.593E-01  7.629E-01
   1   13    8     7     2    1.4872E+02  1.7810E+00   1.4694E+02  0.000E+00  0.000E+00  0.000E+00  1.03478E+03  2.280E+00  5.526E+01  6.148E-01  9.656E-01
   1   13    7     7     3    1.4694E+02  1.4274E+00   1.4551E+02  0.000E+00  0.000E+00  0.000E+00  1.02969E+03  2.271E+00  5.522E+01  5.585E-01  8.520E-01
   1   13    6     8     1    1.7164E+02  8.7832E-01   1.7076E+02  0.000E+00  0.000E+00  0.000E+00  1.02484E+03  2.960E+00  4.292E+01  4.374E-01  6.694E-01
   1   13    5     8     2    1.7076E+02  1.2142E-01   1.7064E+02  0.000E+00  0.000E+00  0.000E+00  1.01858E+03  2.957E+00  4.287E+01  4.369E-01  9.264E-02
   1   13    4     8     3    1.7064E+02 -2.5941E+00   1.7324E+02  0.000E+00  0.000E+00  0.000E+00  1.01234E+03  2.965E+00  4.299E+01  4.381E+00 -1.974E-01
   1   13    3     8     4    1.7324E+02 -3.6819E+00   1.7692E+02  0.000E+00  0.000E+00  0.000E+00  1.00611E+03  2.985E+00  4.328E+01  4.411E+00 -2.783E-01
   1   13    2     8     5    1.7692E+02 -2.5494E+00   1.7947E+02  0.000E+00  0.000E+00  0.000E+00  9.99880E+02  3.005E+00  4.357E+01  4.440E+00 -1.914E-01
   1   13    1     8     6    1.7947E+02 -1.9008E+00   1.8137E+02  0.000E+00  0.000E+00  0.000E+00  9.94894E+02  3.019E+00  4.377E+01  2.676E+00 -2.367E-01
   1    6    8     9     1    0.0000E+00  0.0000E+00   0.0000E+00  0.000E+00  0.000E+00  0.000E+00  1.07850E+03  0.000E+00  4.000E+00  0.000E+00  1.000E+00



 UBDSV3 SAVING "     NETRECHARGE" ON UNIT 100 AT TIME STEP     5, STRESS PERIOD   3
 UBDSV3 SAVING "    NETDISCHARGE" ON UNIT 101 AT TIME STEP     5, STRESS PERIOD   3
 UBDSV3 SAVING "           GW ET" ON UNIT  61 AT TIME STEP     5, STRESS PERIOD   3
 UBDSV3 SAVING "    UZF RECHARGE" ON UNIT  61 AT TIME STEP     5, STRESS PERIOD   3
 UBDSV3 SAVING " SURFACE LEAKAGE" ON UNIT  61 AT TIME STEP     5, STRESS PERIOD   3
 UBDSV3 SAVING "       HORT+DUNN" ON UNIT  61 AT TIME STEP     5, STRESS PERIOD   3
 UBDSV3 SAVING "  STORAGE CHANGE" ON UNIT  61 AT TIME STEP     5, STRESS PERIOD   3


UNSATURATED ZONE PACKAGE VOLUMETRIC BUDGET FOR  TIME STEP     5 STRESS PERIOD    3
  ------------------------------------------------------------------------------



     CUMULATIVE VOLUMES      L**3       RATES FOR THIS TIME STEP      L**3/T
     ------------------                 ------------------------

           IN:                                      IN:
           ---                                      ---
        INFILTRATION =      151807.6534          INFILTRATION =       0.0000E+00

          OUT:                                     OUT:
          ----                                     ----
              UZF ET =      889133.9526                UZF ET =           0.2900
        UZF RECHARGE =    84904914.4966          UZF RECHARGE =          27.3689

            IN - OUT =   -85642240.7958              IN - OUT =         -27.6589

          STORAGE:                                 STORAGE:
          --------                                 --------
      STORAGE CHANGE =   -85638063.0601        STORAGE CHANGE =         -27.6588

 PERCENT DISCREPANCY IS DIFFERENCE BETWEEN IN-OUT MINUS CHANGE IN STORAGE
 DIVIDED BY THE AVERAGE OF IN AND OUT TIMES 100

 PERCENT DISCREPANCY =          -0.00     PERCENT DISCREPANCY =          -0.00






1
  VOLUMETRIC BUDGET FOR ENTIRE MODEL AT END OF TIME STEP    5, STRESS PERIOD   3
  ------------------------------------------------------------------------------

     CUMULATIVE VOLUMES      L**3       RATES FOR THIS TIME STEP      L**3/T
     ------------------                 ------------------------

           IN:                                      IN:
           ---                                      ---
             STORAGE     =           0.0000               STORAGE     =           0.0000
       CONSTANT HEAD     =           0.0000         CONSTANT HEAD     =           0.0000
               WELLS     =           0.0000                 WELLS     =           0.0000
     HEAD DEP BOUNDS     =      894910.9375       HEAD DEP BOUNDS     =           0.2820
      STREAM LEAKAGE     =    33153688.0000        STREAM LEAKAGE     =          11.3569
        UZF RECHARGE     =    84904920.0000          UZF RECHARGE     =          27.3689
               GW ET     =           0.0000                 GW ET     =           0.0000
     SURFACE LEAKAGE     =           0.0000       SURFACE LEAKAGE     =           0.0000
    SUPPLEMENTARY WELLS  =           0.0000      SUPPLEMENTARY WELLS  =           0.0000

                TOTAL IN =   118953520.0000                  TOTAL IN =          39.0078

          OUT:                                     OUT:
          ----                                     ----
             STORAGE     =    83064832.0000               STORAGE     =          27.9875
       CONSTANT HEAD     =           0.0000         CONSTANT HEAD     =           0.0000
               WELLS     =           0.0000                 WELLS     =           0.0000
     HEAD DEP BOUNDS     =      904116.6250       HEAD DEP BOUNDS     =           0.2890
      STREAM LEAKAGE     =    34787040.0000        STREAM LEAKAGE     =          10.7262
        UZF RECHARGE     =           0.0000          UZF RECHARGE     =           0.0000
               GW ET     =      149509.9688                 GW ET     =       3.0356E-10
     SURFACE LEAKAGE     =           0.0000       SURFACE LEAKAGE     =           0.0000
    SUPPLEMENTARY WELLS  =       31277.1836      SUPPLEMENTARY WELLS  =           0.0000

               TOTAL OUT =   118936784.0000                 TOTAL OUT =          39.0026

                IN - OUT =       16736.0000                  IN - OUT =       5.1498E-03

     PERCENT DISCREPANCY =           0.01         PERCENT DISCREPANCY =           0.01






         TIME SUMMARY AT END OF TIME STEP    5 IN STRESS PERIOD    3
                    SECONDS     MINUTES      HOURS       DAYS        YEARS
                    -----------------------------------------------------------
   TIME STEP LENGTH  87600.      1460.0      24.333      1.0139     2.77588E-03
 STRESS PERIOD TIME 4.38000E+05  7300.0      121.67      5.0694     1.38794E-02
         TOTAL TIME 3.15240E+06  52540.      875.67      36.486     9.98935E-02
1
 
 SOLVING FOR HEAD 
                                                   Max.-Head-Change                         Max.-Flux-Residual
  Residual-Control   Outer-Iter.   Inner-Iter.     Column Row Layer    Maximum-Head-Change  Column Row Layer    Maximum-Flux-Residual          L2-NORM 
          0                 1           2             2    2     1       0.7147427587E-02       2    2    1         0.3725711210E+00      0.1716258831E+01
          0                 2           2             9    9     1       0.2355912547E-02       2    2    1         0.6473232231E-01      0.4844290314E+00
          0                 3           2             8    2     1       0.1058983060E-02       9    9    1         0.2749937709E-01      0.1920022875E+00
          0                 4           2             8    2     1       0.4760192987E-03       8    2    1         0.1236112733E-01      0.8417433479E-01
          0                 5           2             8    2     1       0.2139732255E-03       8    2    1         0.5556400106E-02      0.3755337780E-01
          0                 6           1             8    2     1       0.9618195974E-04       8    2    1         0.2497630931E-02      0.1679940481E-01
          0                 7           1             8    2     1       0.4323416844E-04       8    2    1         0.1122696395E-02      0.7518679385E-02
          0                 8           1             8    2     1       0.1943389669E-04       8    2    1         0.5046562894E-03      0.3365374440E-02
          0                 9           1             8    2     1       0.8735583890E-05       8    2    1         0.2268445419E-03      0.1506432227E-02

    ------------------------------------------------
       NWT REQUIRED            9 OUTER ITERATIONS 
       AND A TOTAL OF         14 INNER ITERATIONS.
    ------------------------------------------------

 NO OUTPUT CONTROL FOR STRESS PERIOD    3   TIME STEP    6
 
 SOLVING FOR HEAD 
                                                   Max.-Head-Change                         Max.-Flux-Residual
  Residual-Control   Outer-Iter.   Inner-Iter.     Column Row Layer    Maximum-Head-Change  Column Row Layer    Maximum-Flux-Residual          L2-NORM 
          0                 1           2             2    2     1       0.7116431261E-02       2    2    1         0.3709374747E+00      0.1706379773E+01
          0                 2           2             8    2     1       0.2355561784E-02       2    2    1         0.6445338974E-01      0.4830499274E+00
          0                 3           2             8    2     1       0.1058839898E-02       8    2    1         0.2749562537E-01      0.1915450095E+00
          0                 4           2             8    2     1       0.4759544862E-03       8    2    1         0.1235945411E-01      0.8397866151E-01
          0                 5           2             8    2     1       0.2139438807E-03       8    2    1         0.5555642591E-02      0.3746715414E-01
          0                 6           1             8    2     1       0.9616867184E-04       8    2    1         0.2497287942E-02      0.1676129056E-01
          0                 7           1             8    2     1       0.4322815077E-04       8    2    1         0.1122541077E-02      0.7501691655E-02
          0                 8           1             8    2     1       0.1943117123E-04       8    2    1         0.5045859492E-03      0.3357811250E-02
          0                 9           1             8    2     1       0.8734349342E-05       8    2    1         0.2268126843E-03      0.1503067296E-02

    ------------------------------------------------
       NWT REQUIRED            9 OUTER ITERATIONS 
       AND A TOTAL OF         14 INNER ITERATIONS.
    ------------------------------------------------

 NO OUTPUT CONTROL FOR STRESS PERIOD    3   TIME STEP    7
 
 SOLVING FOR HEAD 
                                                   Max.-Head-Change                         Max.-Flux-Residual
  Residual-Control   Outer-Iter.   Inner-Iter.     Column Row Layer    Maximum-Head-Change  Column Row Layer    Maximum-Flux-Residual          L2-NORM 
          0                 1           2             2    2     1       0.7086078364E-02       2    2    1         0.3693377540E+00      0.1697310880E+01
          0                 2           2             8    2     1       0.2355242922E-02       2    2    1         0.6418024587E-01      0.4816448000E+00
          0                 3           2             8    2     1       0.1058695554E-02       8    2    1         0.2749189871E-01      0.1910872275E+00
          0                 4           2             8    2     1       0.4758891359E-03       8    2    1         0.1235776706E-01      0.8378212818E-01
          0                 5           2             8    2     1       0.2139142913E-03       8    2    1         0.5554878789E-02      0.3738000619E-01
          0                 6           1             8    2     1       0.9615527264E-04       8    2    1         0.2496942095E-02      0.1672253076E-01
          0                 7           1             8    2     1       0.4322208307E-04       8    2    1         0.1122384469E-02      0.7484433342E-02
          0                 8           1             8    2     1       0.1942842276E-04       8    2    1         0.5045150225E-03      0.3350137239E-02
          0                 9           1             8    2     1       0.8733104790E-05       8    2    1         0.2267805638E-03      0.1499652964E-02

    ------------------------------------------------
       NWT REQUIRED            9 OUTER ITERATIONS 
       AND A TOTAL OF         14 INNER ITERATIONS.
    ------------------------------------------------

 NO OUTPUT CONTROL FOR STRESS PERIOD    3   TIME STEP    8
 
 SOLVING FOR HEAD 
                                                   Max.-Head-Change                         Max.-Flux-Residual
  Residual-Control   Outer-Iter.   Inner-Iter.     Column Row Layer    Maximum-Head-Change  Column Row Layer    Maximum-Flux-Residual          L2-NORM 
          0                 1           2             2    2     1       0.7056267333E-02       2    2    1         0.3677666441E+00      0.1688139397E+01
          0                 2           2             8    2     1       0.2354921111E-02       2    2    1         0.6391197297E-01      0.4802864809E+00
          0                 3           2             8    2     1       0.1058549795E-02       8    2    1         0.2748813721E-01      0.1906340394E+00
          0                 4           2             8    2     1       0.4758231118E-03       8    2    1         0.1235606333E-01      0.8358654991E-01
          0                 5           2             8    2     1       0.2138843811E-03       8    2    1         0.5554107025E-02      0.3729323637E-01
          0                 6           1             8    2     1       0.9614172188E-04       8    2    1         0.2496592474E-02      0.1668393651E-01
          0                 7           1             8    2     1       0.4321594335E-04       8    2    1         0.1122226073E-02      0.7467260385E-02
          0                 8           1             8    2     1       0.1942564102E-04       8    2    1         0.5044432589E-03      0.3342496202E-02
          0                 9           1             8    2     1       0.8731843980E-05       8    2    1         0.2267480448E-03      0.1496252517E-02

    ------------------------------------------------
       NWT REQUIRED            9 OUTER ITERATIONS 
       AND A TOTAL OF         14 INNER ITERATIONS.
    ------------------------------------------------

 NO OUTPUT CONTROL FOR STRESS PERIOD    3   TIME STEP    9
 
 SOLVING FOR HEAD 
                                                   Max.-Head-Change                         Max.-Flux-Residual
  Residual-Control   Outer-Iter.   Inner-Iter.     Column Row Layer    Maximum-Head-Change  Column Row Layer    Maximum-Flux-Residual          L2-NORM 
          0                 1           2             2    2     1       0.7027072191E-02       2    2    1         0.3662280455E+00      0.1681578450E+01
          0                 2           2             8    2     1       0.2354547197E-02       2    2    1         0.6364923731E-01      0.4790873136E+00
          0                 3           2             8    2     1       0.1058380670E-02       8    2    1         0.2748376778E-01      0.1901864640E+00
          0                 4           2             8    2     1       0.4757466079E-03       8    2    1         0.1235408697E-01      0.8339160314E-01
          0                 5           2             8    2     1       0.2138497717E-03       8    2    1         0.5553213005E-02      0.3720672360E-01
          0                 6           1             8    2     1       0.9612606393E-04       8    2    1         0.2496188024E-02      0.1664545392E-01
          0                 7           1             8    2     1       0.4320885870E-04       8    2    1         0.1122043082E-02      0.7450136516E-02
          0                 8           1             8    2     1       0.1942243510E-04       8    2    1         0.5043604589E-03      0.3334875046E-02
          0                 9           1             8    2     1       0.8730393086E-05       8    2    1         0.2267105774E-03      0.1492860132E-02

    ------------------------------------------------
       NWT REQUIRED            9 OUTER ITERATIONS 
       AND A TOTAL OF         14 INNER ITERATIONS.
    ------------------------------------------------

 OUTPUT CONTROL FOR STRESS PERIOD    3   TIME STEP   10
    PRINT BUDGET
    SAVE BUDGET
 UBUDSV SAVING "         STORAGE" ON UNIT102 AT TIME STEP    10, STRESS PERIOD    3
 UBUDSV SAVING "   CONSTANT HEAD" ON UNIT102 AT TIME STEP    10, STRESS PERIOD    3
 UBUDSV SAVING "FLOW RIGHT FACE " ON UNIT102 AT TIME STEP    10, STRESS PERIOD    3
 UBUDSV SAVING "FLOW FRONT FACE " ON UNIT102 AT TIME STEP    10, STRESS PERIOD    3

  HEAD DEP BOUNDS   PERIOD    3   STEP    10
 BOUNDARY      1   LAYER   1   ROW    13   COL     1   RATE   -0.289535    
 BOUNDARY      2   LAYER   1   ROW    14   COL     9   RATE    0.281475    



 STREAM LISTING     PERIOD      3   STEP       10

 LAYER ROW COL. STREAM  RCH.  FLOW INTO     FLOW TO   FLOW OUT OF   OVRLND.     DIRECT     STREAM       STREAM     STREAM     STREAM   STREAMBED  STREAMBED
                SEG.NO.  NO.  STRM. RCH.    AQUIFER    STRM. RCH.    RUNOFF     PRECIP       ET          HEAD       DEPTH      WIDTH   CONDCTNC.   GRADIENT

   1    1    1     1     1    2.2000E+01  2.3088E-01   2.1769E+01  0.000E+00  0.000E+00  0.000E+00  1.09418E+03  1.132E+00  1.242E+01  5.588E-02  1.377E+00
   1    2    2     1     2    2.1769E+01  3.5689E-01   2.1412E+01  0.000E+00  0.000E+00  0.000E+00  1.08919E+03  1.127E+00  1.235E+01  8.648E-02  1.376E+00
   1    3    3     1     3    2.1412E+01  3.0372E-01   2.1109E+01  0.000E+00  0.000E+00  0.000E+00  1.08354E+03  1.121E+00  1.228E+01  7.369E-02  1.374E+00
   1    3    4     1     4    2.1109E+01  2.7914E-01   2.0829E+01  0.000E+00  0.000E+00  0.000E+00  1.07852E+03  1.117E+00  1.222E+01  6.781E-02  1.372E+00
   1    4    5     2     1    1.8829E+01  3.1306E-01   1.8516E+01  0.000E+00  0.000E+00  0.000E+00  1.07295E+03  1.014E+00  1.200E+01  7.800E-02  1.338E+00
   1    5    6     2     2    1.8516E+01  2.4027E-01   1.8276E+01  0.000E+00  0.000E+00  0.000E+00  1.06751E+03  1.005E+00  1.200E+01  6.000E-02  1.335E+00
   1    6    6     2     3    1.8276E+01  2.3980E-01   1.8036E+01  0.000E+00  0.000E+00  0.000E+00  1.06279E+03  9.967E-01  1.200E+01  6.000E-02  1.332E+00
   1    7    6     2     4    1.8036E+01  2.3933E-01   1.7797E+01  0.000E+00  0.000E+00  0.000E+00  1.05806E+03  9.888E-01  1.200E+01  6.000E-02  1.330E+00
   1    8    6     2     5    1.7797E+01  2.3885E-01   1.7558E+01  0.000E+00  0.000E+00  0.000E+00  1.05334E+03  9.808E-01  1.200E+01  6.000E-02  1.327E+00
   1    3    5     3     1    2.0000E+00  2.8252E-01   1.7175E+00  0.000E+00  0.000E+00  0.000E+00  1.07555E+03  1.909E+00  9.636E+00  7.227E-02  1.955E+00
   1    3    6     3     2    1.7175E+00  2.4905E-01   1.4684E+00  0.000E+00  0.000E+00  0.000E+00  1.07264E+03  1.727E+00  8.909E+00  6.682E-02  1.864E+00
   1    3    7     3     3    1.4684E+00  1.9718E-01   1.2712E+00  0.000E+00  0.000E+00  0.000E+00  1.06987E+03  1.555E+00  8.218E+00  5.547E-02  1.777E+00
   1    4    8     3     4    1.2712E+00  2.2567E-01   1.0456E+00  0.000E+00  0.000E+00  0.000E+00  1.06682E+03  1.364E+00  7.455E+00  6.709E-02  1.682E+00
   1    5    8     3     5    1.0456E+00  1.5790E-01   8.8768E-01  0.000E+00  0.000E+00  0.000E+00  1.06362E+03  1.164E+00  6.655E+00  4.991E-02  1.582E+00
   1    6    8     3     6    8.8768E-01  5.5980E-02   8.3170E-01  0.000E+00  0.000E+00  0.000E+00  1.06158E+03  1.036E+00  6.145E+00  1.844E-02  1.518E+00
   1    5   10     4     1    1.0000E+01  9.0919E-02   9.9091E+00  0.000E+00  0.000E+00  0.000E+00  1.07836E+03  6.368E-01  1.000E+01  2.500E-02  1.212E+00
   1    5    9     4     2    9.9091E+00  1.8158E-01   9.7275E+00  0.000E+00  0.000E+00  0.000E+00  1.07154E+03  6.315E-01  1.000E+01  5.000E-02  1.211E+00
   1    6    8     4     3    9.7275E+00  1.2689E-01   9.6006E+00  0.000E+00  0.000E+00  0.000E+00  1.06381E+03  6.256E-01  1.000E+01  3.500E-02  1.209E+00
   1    6    8     5     1    1.0432E+01  2.2686E-01   1.0205E+01  0.000E+00  0.000E+00  0.000E+00  1.05868E+03  6.790E-01  1.542E+01  6.166E-02  1.226E+00
   1    7    7     5     2    1.0205E+01  2.7894E-01   9.9265E+00  0.000E+00  0.000E+00  0.000E+00  1.05417E+03  6.732E-01  1.519E+01  7.594E-02  1.224E+00
   1    8    7     5     3    9.9265E+00  1.9221E-01   9.7343E+00  0.000E+00  0.000E+00  0.000E+00  1.04992E+03  6.676E-01  1.497E+01  5.241E-02  1.223E+00
   1    8    6     5     4    9.7343E+00  1.3577E-01   9.5985E+00  0.000E+00  0.000E+00  0.000E+00  1.04691E+03  6.637E-01  1.482E+01  3.706E-02  1.221E+00
   1    9    6     6     1    2.7157E+01  2.5677E-01   2.6900E+01  0.000E+00  0.000E+00  0.000E+00  1.04401E+03  1.280E+00  1.200E+01  6.000E-02  1.427E+00
   1   10    7     6     2    2.6900E+01  2.5634E-01   2.6643E+01  0.000E+00  0.000E+00  0.000E+00  1.03945E+03  1.272E+00  1.200E+01  6.000E-02  1.424E+00
   1   11    7     6     3    2.6643E+01  2.5590E-01   2.6388E+01  0.000E+00  0.000E+00  0.000E+00  1.03490E+03  1.265E+00  1.200E+01  6.000E-02  1.422E+00
   1   12    7     6     4    2.6388E+01  2.5546E-01   2.6132E+01  0.000E+00  0.000E+00  0.000E+00  1.03035E+03  1.258E+00  1.200E+01  6.000E-02  1.419E+00
   1   13    7     6     5    2.6132E+01 -6.1821E-04   2.6133E+01  0.000E+00  0.000E+00  0.000E+00  1.02716E+03  1.254E+00  1.200E+01  2.400E-01 -8.586E-04
   1   14    9     7     1    1.5000E+02  1.2729E+00   1.4873E+02  0.000E+00  0.000E+00  0.000E+00  1.03987E+03  2.288E+00  5.530E+01  5.593E-01  7.586E-01
   1   13    8     7     2    1.4873E+02  1.7699E+00   1.4696E+02  0.000E+00  0.000E+00  0.000E+00  1.03478E+03  2.280E+00  5.526E+01  6.148E-01  9.596E-01
   1   13    7     7     3    1.4696E+02  1.4102E+00   1.4555E+02  0.000E+00  0.000E+00  0.000E+00  1.02969E+03  2.271E+00  5.522E+01  5.585E-01  8.417E-01
   1   13    6     8     1    1.7168E+02  8.6490E-01   1.7081E+02  0.000E+00  0.000E+00  0.000E+00  1.02484E+03  2.960E+00  4.292E+01  4.374E-01  6.591E-01
   1   13    5     8     2    1.7081E+02  1.1227E-01   1.7070E+02  0.000E+00  0.000E+00  0.000E+00  1.01858E+03  2.957E+00  4.288E+01  4.369E-01  8.565E-02
   1   13    4     8     3    1.7070E+02 -2.6721E+00   1.7337E+02  0.000E+00  0.000E+00  0.000E+00  1.01234E+03  2.965E+00  4.300E+01  4.382E+00 -2.033E-01
   1   13    3     8     4    1.7337E+02 -3.7527E+00   1.7713E+02  0.000E+00  0.000E+00  0.000E+00  1.00611E+03  2.986E+00  4.330E+01  4.412E+00 -2.835E-01
   1   13    2     8     5    1.7713E+02 -2.6318E+00   1.7976E+02  0.000E+00  0.000E+00  0.000E+00  9.99881E+02  3.006E+00  4.359E+01  4.442E+00 -1.975E-01
   1   13    1     8     6    1.7976E+02 -1.9378E+00   1.8170E+02  0.000E+00  0.000E+00  0.000E+00  9.94896E+02  3.021E+00  4.380E+01  2.678E+00 -2.412E-01
   1    6    8     9     1    0.0000E+00  0.0000E+00   0.0000E+00  0.000E+00  0.000E+00  0.000E+00  1.07850E+03  0.000E+00  4.000E+00  0.000E+00  1.000E+00



 UBDSV3 SAVING "     NETRECHARGE" ON UNIT 100 AT TIME STEP    10, STRESS PERIOD   3
 UBDSV3 SAVING "    NETDISCHARGE" ON UNIT 101 AT TIME STEP    10, STRESS PERIOD   3
 UBDSV3 SAVING "           GW ET" ON UNIT  61 AT TIME STEP    10, STRESS PERIOD   3
 UBDSV3 SAVING "    UZF RECHARGE" ON UNIT  61 AT TIME STEP    10, STRESS PERIOD   3
 UBDSV3 SAVING " SURFACE LEAKAGE" ON UNIT  61 AT TIME STEP    10, STRESS PERIOD   3
 UBDSV3 SAVING "       HORT+DUNN" ON UNIT  61 AT TIME STEP    10, STRESS PERIOD   3
 UBDSV3 SAVING "  STORAGE CHANGE" ON UNIT  61 AT TIME STEP    10, STRESS PERIOD   3


UNSATURATED ZONE PACKAGE VOLUMETRIC BUDGET FOR  TIME STEP    10 STRESS PERIOD    3
  ------------------------------------------------------------------------------



     CUMULATIVE VOLUMES      L**3       RATES FOR THIS TIME STEP      L**3/T
     ------------------                 ------------------------

           IN:                                      IN:
           ---                                      ---
        INFILTRATION =      151807.6534          INFILTRATION =       0.0000E+00

          OUT:                                     OUT:
          ----                                     ----
              UZF ET =     1016151.7460                UZF ET =           0.2900
        UZF RECHARGE =    96842384.3003          UZF RECHARGE =          27.1729

            IN - OUT =   -97706728.3929              IN - OUT =         -27.4629

          STORAGE:                                 STORAGE:
          --------                                 --------
      STORAGE CHANGE =   -97702494.2807        STORAGE CHANGE =         -27.4628

 PERCENT DISCREPANCY IS DIFFERENCE BETWEEN IN-OUT MINUS CHANGE IN STORAGE
 DIVIDED BY THE AVERAGE OF IN AND OUT TIMES 100

 PERCENT DISCREPANCY =          -0.00     PERCENT DISCREPANCY =          -0.00






1
  VOLUMETRIC BUDGET FOR ENTIRE MODEL AT END OF TIME STEP   10, STRESS PERIOD   3
  ------------------------------------------------------------------------------

     CUMULATIVE VOLUMES      L**3       RATES FOR THIS TIME STEP      L**3/T
     ------------------                 ------------------------

           IN:                                      IN:
           ---                                      ---
             STORAGE     =           0.0000               STORAGE     =           0.0000
       CONSTANT HEAD     =           0.0000         CONSTANT HEAD     =           0.0000
               WELLS     =           0.0000                 WELLS     =           0.0000
     HEAD DEP BOUNDS     =     1018283.4375       HEAD DEP BOUNDS     =           0.2815
      STREAM LEAKAGE     =    38112396.0000        STREAM LEAKAGE     =          11.2980
        UZF RECHARGE     =    96842392.0000          UZF RECHARGE     =          27.1729
               GW ET     =           0.0000                 GW ET     =           0.0000
     SURFACE LEAKAGE     =           0.0000       SURFACE LEAKAGE     =           0.0000
    SUPPLEMENTARY WELLS  =           0.0000      SUPPLEMENTARY WELLS  =           0.0000

                TOTAL IN =   135973072.0000                  TOTAL IN =          38.7524

          OUT:                                     OUT:
          ----                                     ----
             STORAGE     =    95182376.0000               STORAGE     =          27.4627
       CONSTANT HEAD     =           0.0000         CONSTANT HEAD     =           0.0000
               WELLS     =           0.0000                 WELLS     =           0.0000
     HEAD DEP BOUNDS     =     1030835.7500       HEAD DEP BOUNDS     =           0.2895
      STREAM LEAKAGE     =    39560084.0000        STREAM LEAKAGE     =          10.9951
        UZF RECHARGE     =           0.0000          UZF RECHARGE     =           0.0000
               GW ET     =      149512.1719                 GW ET     =       3.1786E-06
     SURFACE LEAKAGE     =           0.0000       SURFACE LEAKAGE     =           0.0000
    SUPPLEMENTARY WELLS  =       31277.1836      SUPPLEMENTARY WELLS  =           0.0000

               TOTAL OUT =   135954096.0000                 TOTAL OUT =          38.7473

                IN - OUT =       18976.0000                  IN - OUT =       5.0888E-03

     PERCENT DISCREPANCY =           0.01         PERCENT DISCREPANCY =           0.01






         TIME SUMMARY AT END OF TIME STEP   10 IN STRESS PERIOD    3
                    SECONDS     MINUTES      HOURS       DAYS        YEARS
                    -----------------------------------------------------------
   TIME STEP LENGTH  87600.      1460.0      24.333      1.0139     2.77588E-03
 STRESS PERIOD TIME 8.76000E+05  14600.      243.33      10.139     2.77588E-02
         TOTAL TIME 3.59040E+06  59840.      997.33      41.556     0.11377    
1
 
 SOLVING FOR HEAD 
                                                   Max.-Head-Change                         Max.-Flux-Residual
  Residual-Control   Outer-Iter.   Inner-Iter.     Column Row Layer    Maximum-Head-Change  Column Row Layer    Maximum-Flux-Residual          L2-NORM 
          0                 1           2             2    2     1       0.6998479381E-02       2    2    1         0.3647211861E+00      0.1675829282E+01
          0                 2           2             8    2     1       0.2354219583E-02       2    2    1         0.6339192255E-01      0.4779682299E+00
          0                 3           2             8    2     1       0.1058232235E-02       8    2    1         0.2747993820E-01      0.1897478265E+00
          0                 4           2             8    2     1       0.4756793493E-03       8    2    1         0.1235235183E-01      0.8319852335E-01
          0                 5           2             8    2     1       0.2138192939E-03       8    2    1         0.5552426781E-02      0.3712086076E-01
          0                 6           1             8    2     1       0.9611225179E-04       8    2    1         0.2495831739E-02      0.1660733143E-01
          0                 7           1             8    2     1       0.4320259892E-04       8    2    1         0.1121881618E-02      0.7433356187E-02
          0                 8           1             8    2     1       0.1941959784E-04       8    2    1         0.5042872825E-03      0.3327319208E-02
          0                 9           1             8    2     1       0.8729107265E-05       8    2    1         0.2266774120E-03      0.1489493730E-02

    ------------------------------------------------
       NWT REQUIRED            9 OUTER ITERATIONS 
       AND A TOTAL OF         14 INNER ITERATIONS.
    ------------------------------------------------

 NO OUTPUT CONTROL FOR STRESS PERIOD    3   TIME STEP   11
 
 SOLVING FOR HEAD 
                                                   Max.-Head-Change                         Max.-Flux-Residual
  Residual-Control   Outer-Iter.   Inner-Iter.     Column Row Layer    Maximum-Head-Change  Column Row Layer    Maximum-Flux-Residual          L2-NORM 
          0                 1           2             2    2     1       0.6970387965E-02       2    2    1         0.3632408365E+00      0.1668225054E+01
          0                 2           2             8    2     1       0.2353888813E-02       2    2    1         0.6313911141E-01      0.4765635352E+00
          0                 3           2             8    2     1       0.1058082380E-02       8    2    1         0.2747607179E-01      0.1892898451E+00
          0                 4           2             8    2     1       0.4756114531E-03       8    2    1         0.1235060014E-01      0.8300436706E-01
          0                 5           2             8    2     1       0.2137885290E-03       8    2    1         0.5551633107E-02      0.3703494364E-01
          0                 6           1             8    2     1       0.9609831110E-04       8    2    1         0.2495472114E-02      0.1656902367E-01
          0                 7           1             8    2     1       0.4319628137E-04       8    2    1         0.1121718656E-02      0.7416118813E-02
          0                 8           1             8    2     1       0.1941673507E-04       8    2    1         0.5042134308E-03      0.3319733105E-02
          0                 9           1             8    2     1       0.8727809689E-05       8    2    1         0.2266439398E-03      0.1486129588E-02

    ------------------------------------------------
       NWT REQUIRED            9 OUTER ITERATIONS 
       AND A TOTAL OF         14 INNER ITERATIONS.
    ------------------------------------------------

 NO OUTPUT CONTROL FOR STRESS PERIOD    3   TIME STEP   12
 
 SOLVING FOR HEAD 
                                                   Max.-Head-Change                         Max.-Flux-Residual
  Residual-Control   Outer-Iter.   Inner-Iter.     Column Row Layer    Maximum-Head-Change  Column Row Layer    Maximum-Flux-Residual          L2-NORM 
          0                 1           2             2    2     1       0.6942873360E-02       2    2    1         0.3617908789E+00      0.1662700101E+01
          0                 2           2             8    2     1       0.2353554642E-02       2    2    1         0.6289149175E-01      0.4754618850E+00
          0                 3           2             8    2     1       0.1057930935E-02       8    2    1         0.2747216538E-01      0.1888546259E+00
          0                 4           2             8    2     1       0.4755428141E-03       8    2    1         0.1234882974E-01      0.8281240668E-01
          0                 5           2             8    2     1       0.2137574184E-03       8    2    1         0.5550830710E-02      0.3694954950E-01
          0                 6           1             8    2     1       0.9608420959E-04       8    2    1         0.2495108424E-02      0.1653101399E-01
          0                 7           1             8    2     1       0.4318988928E-04       8    2    1         0.1121553803E-02      0.7399199404E-02
          0                 8           1             8    2     1       0.1941383703E-04       8    2    1         0.5041387027E-03      0.3312200780E-02
          0                 9           1             8    2     1       0.8726496356E-05       8    2    1         0.2266100704E-03      0.1482765854E-02

    ------------------------------------------------
       NWT REQUIRED            9 OUTER ITERATIONS 
       AND A TOTAL OF         14 INNER ITERATIONS.
    ------------------------------------------------

 NO OUTPUT CONTROL FOR STRESS PERIOD    3   TIME STEP   13
 
 SOLVING FOR HEAD 
                                                   Max.-Head-Change                         Max.-Flux-Residual
  Residual-Control   Outer-Iter.   Inner-Iter.     Column Row Layer    Maximum-Head-Change  Column Row Layer    Maximum-Flux-Residual          L2-NORM 
          0                 1           2             2    2     1       0.6915922992E-02       2    2    1         0.3603706887E+00      0.1658430641E+01
          0                 2           2             8    2     1       0.2353216980E-02       2    2    1         0.6264894662E-01      0.4744248638E+00
          0                 3           2             8    2     1       0.1057777891E-02       8    2    1         0.2746821809E-01      0.1884248560E+00
          0                 4           2             8    2     1       0.4754734443E-03       8    2    1         0.1234704063E-01      0.8262194187E-01
          0                 5           2             8    2     1       0.2137259737E-03       8    2    1         0.5550019759E-02      0.3686476767E-01
          0                 6           1             8    2     1       0.9606995526E-04       8    2    1         0.2494740825E-02      0.1649326911E-01
          0                 7           1             8    2     1       0.4318342741E-04       8    2    1         0.1121387167E-02      0.7382394541E-02
          0                 8           1             8    2     1       0.1941090798E-04       8    2    1         0.5040631635E-03      0.3304718729E-02
          0                 9           1             8    2     1       0.8725168016E-05       8    2    1         0.2265758207E-03      0.1479434687E-02

    ------------------------------------------------
       NWT REQUIRED            9 OUTER ITERATIONS 
       AND A TOTAL OF         14 INNER ITERATIONS.
    ------------------------------------------------

 NO OUTPUT CONTROL FOR STRESS PERIOD    3   TIME STEP   14
 
 SOLVING FOR HEAD 
                                                   Max.-Head-Change                         Max.-Flux-Residual
  Residual-Control   Outer-Iter.   Inner-Iter.     Column Row Layer    Maximum-Head-Change  Column Row Layer    Maximum-Flux-Residual          L2-NORM 
          0                 1           2             2    2     1       0.6889524164E-02       2    2    1         0.3589795938E+00      0.1654504276E+01
          0                 2           2             8    2     1       0.2352875852E-02       2    2    1         0.6241136210E-01      0.4734131568E+00
          0                 3           2             8    2     1       0.1057623290E-02       8    2    1         0.2746423033E-01      0.1879989904E+00
          0                 4           2             8    2     1       0.4754033747E-03       8    2    1         0.1234523335E-01      0.8243280510E-01
          0                 5           2             8    2     1       0.2136942149E-03       8    2    1         0.5549200638E-02      0.3678054712E-01
          0                 6           1             8    2     1       0.9605555987E-04       8    2    1         0.2494369554E-02      0.1645577040E-01
          0                 7           1             8    2     1       0.4317690201E-04       8    2    1         0.1121218880E-02      0.7365698240E-02
          0                 8           1             8    2     1       0.1940795017E-04       8    2    1         0.5039868832E-03      0.3297283440E-02
          0                 9           1             8    2     1       0.8723827171E-05       8    2    1         0.2265412400E-03      0.1476124080E-02

    ------------------------------------------------
       NWT REQUIRED            9 OUTER ITERATIONS 
       AND A TOTAL OF         14 INNER ITERATIONS.
    ------------------------------------------------

 OUTPUT CONTROL FOR STRESS PERIOD    3   TIME STEP   15
    PRINT BUDGET
    PRINT HEAD FOR ALL LAYERS
    SAVE HEAD FOR ALL LAYERS
    SAVE BUDGET
 UBUDSV SAVING "         STORAGE" ON UNIT102 AT TIME STEP    15, STRESS PERIOD    3
 UBUDSV SAVING "   CONSTANT HEAD" ON UNIT102 AT TIME STEP    15, STRESS PERIOD    3
 UBUDSV SAVING "FLOW RIGHT FACE " ON UNIT102 AT TIME STEP    15, STRESS PERIOD    3
 UBUDSV SAVING "FLOW FRONT FACE " ON UNIT102 AT TIME STEP    15, STRESS PERIOD    3

  HEAD DEP BOUNDS   PERIOD    3   STEP    15
 BOUNDARY      1   LAYER   1   ROW    13   COL     1   RATE   -0.289945    
 BOUNDARY      2   LAYER   1   ROW    14   COL     9   RATE    0.280993    



 STREAM LISTING     PERIOD      3   STEP       15

 LAYER ROW COL. STREAM  RCH.  FLOW INTO     FLOW TO   FLOW OUT OF   OVRLND.     DIRECT     STREAM       STREAM     STREAM     STREAM   STREAMBED  STREAMBED
                SEG.NO.  NO.  STRM. RCH.    AQUIFER    STRM. RCH.    RUNOFF     PRECIP       ET          HEAD       DEPTH      WIDTH   CONDCTNC.   GRADIENT

   1    1    1     1     1    2.2000E+01  2.3088E-01   2.1769E+01  0.000E+00  0.000E+00  0.000E+00  1.09418E+03  1.132E+00  1.242E+01  5.588E-02  1.377E+00
   1    2    2     1     2    2.1769E+01  3.5689E-01   2.1412E+01  0.000E+00  0.000E+00  0.000E+00  1.08919E+03  1.127E+00  1.235E+01  8.648E-02  1.376E+00
   1    3    3     1     3    2.1412E+01  3.0372E-01   2.1109E+01  0.000E+00  0.000E+00  0.000E+00  1.08354E+03  1.121E+00  1.228E+01  7.369E-02  1.374E+00
   1    3    4     1     4    2.1109E+01  2.7914E-01   2.0829E+01  0.000E+00  0.000E+00  0.000E+00  1.07852E+03  1.117E+00  1.222E+01  6.781E-02  1.372E+00
   1    4    5     2     1    1.8829E+01  3.1306E-01   1.8516E+01  0.000E+00  0.000E+00  0.000E+00  1.07295E+03  1.014E+00  1.200E+01  7.800E-02  1.338E+00
   1    5    6     2     2    1.8516E+01  2.4027E-01   1.8276E+01  0.000E+00  0.000E+00  0.000E+00  1.06751E+03  1.005E+00  1.200E+01  6.000E-02  1.335E+00
   1    6    6     2     3    1.8276E+01  2.3980E-01   1.8036E+01  0.000E+00  0.000E+00  0.000E+00  1.06279E+03  9.967E-01  1.200E+01  6.000E-02  1.332E+00
   1    7    6     2     4    1.8036E+01  2.3933E-01   1.7797E+01  0.000E+00  0.000E+00  0.000E+00  1.05806E+03  9.888E-01  1.200E+01  6.000E-02  1.330E+00
   1    8    6     2     5    1.7797E+01  2.3885E-01   1.7558E+01  0.000E+00  0.000E+00  0.000E+00  1.05334E+03  9.808E-01  1.200E+01  6.000E-02  1.327E+00
   1    3    5     3     1    2.0000E+00  2.8252E-01   1.7175E+00  0.000E+00  0.000E+00  0.000E+00  1.07555E+03  1.909E+00  9.636E+00  7.227E-02  1.955E+00
   1    3    6     3     2    1.7175E+00  2.4905E-01   1.4684E+00  0.000E+00  0.000E+00  0.000E+00  1.07264E+03  1.727E+00  8.909E+00  6.682E-02  1.864E+00
   1    3    7     3     3    1.4684E+00  1.9718E-01   1.2712E+00  0.000E+00  0.000E+00  0.000E+00  1.06987E+03  1.555E+00  8.218E+00  5.547E-02  1.777E+00
   1    4    8     3     4    1.2712E+00  2.2567E-01   1.0456E+00  0.000E+00  0.000E+00  0.000E+00  1.06682E+03  1.364E+00  7.455E+00  6.709E-02  1.682E+00
   1    5    8     3     5    1.0456E+00  1.5790E-01   8.8768E-01  0.000E+00  0.000E+00  0.000E+00  1.06362E+03  1.164E+00  6.655E+00  4.991E-02  1.582E+00
   1    6    8     3     6    8.8768E-01  5.5980E-02   8.3170E-01  0.000E+00  0.000E+00  0.000E+00  1.06158E+03  1.036E+00  6.145E+00  1.844E-02  1.518E+00
   1    5   10     4     1    1.0000E+01  9.0919E-02   9.9091E+00  0.000E+00  0.000E+00  0.000E+00  1.07836E+03  6.368E-01  1.000E+01  2.500E-02  1.212E+00
   1    5    9     4     2    9.9091E+00  1.8158E-01   9.7275E+00  0.000E+00  0.000E+00  0.000E+00  1.07154E+03  6.315E-01  1.000E+01  5.000E-02  1.211E+00
   1    6    8     4     3    9.7275E+00  1.2689E-01   9.6006E+00  0.000E+00  0.000E+00  0.000E+00  1.06381E+03  6.256E-01  1.000E+01  3.500E-02  1.209E+00
   1    6    8     5     1    1.0432E+01  2.2686E-01   1.0205E+01  0.000E+00  0.000E+00  0.000E+00  1.05868E+03  6.790E-01  1.542E+01  6.166E-02  1.226E+00
   1    7    7     5     2    1.0205E+01  2.7894E-01   9.9265E+00  0.000E+00  0.000E+00  0.000E+00  1.05417E+03  6.732E-01  1.519E+01  7.594E-02  1.224E+00
   1    8    7     5     3    9.9265E+00  1.9221E-01   9.7343E+00  0.000E+00  0.000E+00  0.000E+00  1.04992E+03  6.676E-01  1.497E+01  5.241E-02  1.223E+00
   1    8    6     5     4    9.7343E+00  1.3577E-01   9.5985E+00  0.000E+00  0.000E+00  0.000E+00  1.04691E+03  6.637E-01  1.482E+01  3.706E-02  1.221E+00
   1    9    6     6     1    2.7157E+01  2.5677E-01   2.6900E+01  0.000E+00  0.000E+00  0.000E+00  1.04401E+03  1.280E+00  1.200E+01  6.000E-02  1.427E+00
   1   10    7     6     2    2.6900E+01  2.5634E-01   2.6643E+01  0.000E+00  0.000E+00  0.000E+00  1.03945E+03  1.272E+00  1.200E+01  6.000E-02  1.424E+00
   1   11    7     6     3    2.6643E+01  2.5590E-01   2.6388E+01  0.000E+00  0.000E+00  0.000E+00  1.03490E+03  1.265E+00  1.200E+01  6.000E-02  1.422E+00
   1   12    7     6     4    2.6388E+01  2.5546E-01   2.6132E+01  0.000E+00  0.000E+00  0.000E+00  1.03035E+03  1.258E+00  1.200E+01  6.000E-02  1.419E+00
   1   13    7     6     5    2.6132E+01 -7.3027E-03   2.6139E+01  0.000E+00  0.000E+00  0.000E+00  1.02716E+03  1.254E+00  1.200E+01  2.400E-01 -1.014E-02
   1   14    9     7     1    1.5000E+02  1.2658E+00   1.4873E+02  0.000E+00  0.000E+00  0.000E+00  1.03987E+03  2.288E+00  5.530E+01  5.593E-01  7.544E-01
   1   13    8     7     2    1.4873E+02  1.7589E+00   1.4698E+02  0.000E+00  0.000E+00  0.000E+00  1.03478E+03  2.280E+00  5.526E+01  6.148E-01  9.536E-01
   1   13    7     7     3    1.4698E+02  1.3947E+00   1.4558E+02  0.000E+00  0.000E+00  0.000E+00  1.02969E+03  2.271E+00  5.522E+01  5.585E-01  8.324E-01
   1   13    6     8     1    1.7172E+02  8.5260E-01   1.7087E+02  0.000E+00  0.000E+00  0.000E+00  1.02484E+03  2.961E+00  4.293E+01  4.375E-01  6.497E-01
   1   13    5     8     2    1.7087E+02  1.0418E-01   1.7076E+02  0.000E+00  0.000E+00  0.000E+00  1.01858E+03  2.958E+00  4.288E+01  4.370E-01  7.946E-02
   1   13    4     8     3    1.7076E+02 -2.7229E+00   1.7349E+02  0.000E+00  0.000E+00  0.000E+00  1.01234E+03  2.966E+00  4.301E+01  4.383E+00 -2.071E-01
   1   13    3     8     4    1.7349E+02 -3.7994E+00   1.7729E+02  0.000E+00  0.000E+00  0.000E+00  1.00611E+03  2.987E+00  4.331E+01  4.413E+00 -2.869E-01
   1   13    2     8     5    1.7729E+02 -2.6839E+00   1.7997E+02  0.000E+00  0.000E+00  0.000E+00  9.99883E+02  3.008E+00  4.361E+01  4.444E+00 -2.013E-01
   1   13    1     8     6    1.7997E+02 -1.9639E+00   1.8193E+02  0.000E+00  0.000E+00  0.000E+00  9.94897E+02  3.022E+00  4.382E+01  2.679E+00 -2.443E-01
   1    6    8     9     1    0.0000E+00  0.0000E+00   0.0000E+00  0.000E+00  0.000E+00  0.000E+00  1.07850E+03  0.000E+00  4.000E+00  0.000E+00  1.000E+00



 UBDSV3 SAVING "     NETRECHARGE" ON UNIT 100 AT TIME STEP    15, STRESS PERIOD   3
 UBDSV3 SAVING "    NETDISCHARGE" ON UNIT 101 AT TIME STEP    15, STRESS PERIOD   3
 UBDSV3 SAVING "           GW ET" ON UNIT  61 AT TIME STEP    15, STRESS PERIOD   3
 UBDSV3 SAVING "    UZF RECHARGE" ON UNIT  61 AT TIME STEP    15, STRESS PERIOD   3
 UBDSV3 SAVING " SURFACE LEAKAGE" ON UNIT  61 AT TIME STEP    15, STRESS PERIOD   3
 UBDSV3 SAVING "       HORT+DUNN" ON UNIT  61 AT TIME STEP    15, STRESS PERIOD   3
 UBDSV3 SAVING "  STORAGE CHANGE" ON UNIT  61 AT TIME STEP    15, STRESS PERIOD   3


UNSATURATED ZONE PACKAGE VOLUMETRIC BUDGET FOR  TIME STEP    15 STRESS PERIOD    3
  ------------------------------------------------------------------------------



     CUMULATIVE VOLUMES      L**3       RATES FOR THIS TIME STEP      L**3/T
     ------------------                 ------------------------

           IN:                                      IN:
           ---                                      ---
        INFILTRATION =      151807.6534          INFILTRATION =       0.0000E+00

          OUT:                                     OUT:
          ----                                     ----
              UZF ET =     1143171.7460                UZF ET =           0.2900
        UZF RECHARGE =   108692406.1130          UZF RECHARGE =          26.9911

            IN - OUT =  -109683770.2056              IN - OUT =         -27.2811

          STORAGE:                                 STORAGE:
          --------                                 --------
      STORAGE CHANGE =  -109679497.9376        STORAGE CHANGE =         -27.2811

 PERCENT DISCREPANCY IS DIFFERENCE BETWEEN IN-OUT MINUS CHANGE IN STORAGE
 DIVIDED BY THE AVERAGE OF IN AND OUT TIMES 100

 PERCENT DISCREPANCY =          -0.00     PERCENT DISCREPANCY =          -0.00






1
              HEAD IN LAYER   1 AT END OF TIME STEP    15 IN STRESS PERIOD    3
  -----------------------------------------------------------------------------

           1       2       3       4       5       6       7       8       9      10
 ...................................................................................
   1  1033.45 1032.35 6999.00 6999.00 6999.00 6999.00 6999.00 6999.00 6999.00 6999.00
   2  1032.71 1031.29 1030.61 6999.00 6999.00 1031.88 1032.03 1032.00 6999.00 6999.00
   3  6999.00 1030.50 1030.07 1029.82 1030.42 1031.07 1031.61 1031.58 6999.00 6999.00
   4  1029.81 1029.79 1029.54 1029.20 1029.26 1029.30 1029.92 1031.00 1030.74 6999.00
   5  1029.36 1029.01 1028.79 1028.52 1028.59 1028.79 1028.93 1029.40 1030.02 1030.52
   6  1028.78 1028.25 1028.01 1027.80 1027.89 1028.20 1028.46 1028.98 1029.63 1030.59
   7  1028.26 1027.26 1027.04 1026.89 1027.04 1027.44 1027.84 1028.33 1029.07 6999.00
   8  6999.00 1025.81 1025.78 1025.75 1025.96 1026.44 1026.86 1027.78 1028.37 6999.00
   9  6999.00 1023.64 1023.91 1024.18 1024.55 1025.19 1025.70 1026.67 1027.77 6999.00
  10  6999.00 1020.65 1021.35 1022.22 1022.99 1024.00 1024.92 1026.18 1027.81 1028.43
  11  6999.00 1015.98 1017.30 1019.71 1021.34 1023.06 1024.61 1026.59 1028.80 6999.00
  12  1002.30 1008.33 1012.30 1016.27 1019.55 1022.54 1025.04 1028.60 1031.65 6999.00
  13   995.63 1000.49 1006.97 1012.96 1018.34 1022.89 1027.19 1031.92 1034.78 6999.00
  14  6999.00 1006.16 1009.21 1013.84 1018.58 1022.96 1027.89 1033.39 1037.61 6999.00
  15  6999.00 6999.00 1012.84 1015.55 1019.00 1022.00 6999.00 6999.00 6999.00 6999.00

 HEAD WILL BE SAVED ON UNIT   62 AT END OF TIME STEP   15, STRESS PERIOD    3
1
  VOLUMETRIC BUDGET FOR ENTIRE MODEL AT END OF TIME STEP   15, STRESS PERIOD   3
  ------------------------------------------------------------------------------

     CUMULATIVE VOLUMES      L**3       RATES FOR THIS TIME STEP      L**3/T
     ------------------                 ------------------------

           IN:                                      IN:
           ---                                      ---
             STORAGE     =           0.0000               STORAGE     =           0.0000
       CONSTANT HEAD     =           0.0000         CONSTANT HEAD     =           0.0000
               WELLS     =           0.0000                 WELLS     =           0.0000
     HEAD DEP BOUNDS     =     1141442.5000       HEAD DEP BOUNDS     =           0.2810
      STREAM LEAKAGE     =    43046600.0000        STREAM LEAKAGE     =          11.2441
        UZF RECHARGE     =   108692416.0000          UZF RECHARGE     =          26.9911
               GW ET     =           0.0000                 GW ET     =           0.0000
     SURFACE LEAKAGE     =           0.0000       SURFACE LEAKAGE     =           0.0000
    SUPPLEMENTARY WELLS  =           0.0000      SUPPLEMENTARY WELLS  =           0.0000

                TOTAL IN =   152880464.0000                  TOTAL IN =          38.5162

          OUT:                                     OUT:
          ----                                     ----
             STORAGE     =   107094456.0000               STORAGE     =          27.0438
       CONSTANT HEAD     =           0.0000         CONSTANT HEAD     =           0.0000
               WELLS     =           0.0000                 WELLS     =           0.0000
     HEAD DEP BOUNDS     =     1157766.3750       HEAD DEP BOUNDS     =           0.2899
      STREAM LEAKAGE     =    44426240.0000        STREAM LEAKAGE     =          11.1774
        UZF RECHARGE     =           0.0000          UZF RECHARGE     =           0.0000
               GW ET     =      149512.1719                 GW ET     =       3.0357E-10
     SURFACE LEAKAGE     =           0.0000       SURFACE LEAKAGE     =           0.0000
    SUPPLEMENTARY WELLS  =       31277.1836      SUPPLEMENTARY WELLS  =           0.0000

               TOTAL OUT =   152859264.0000                 TOTAL OUT =          38.5112

                IN - OUT =       21200.0000                  IN - OUT =       5.0278E-03

     PERCENT DISCREPANCY =           0.01         PERCENT DISCREPANCY =           0.01






         TIME SUMMARY AT END OF TIME STEP   15 IN STRESS PERIOD    3
                    SECONDS     MINUTES      HOURS       DAYS        YEARS
                    -----------------------------------------------------------
   TIME STEP LENGTH  87600.      1460.0      24.333      1.0139     2.77588E-03
 STRESS PERIOD TIME 1.31400E+06  21900.      365.00      15.208     4.16381E-02
         TOTAL TIME 4.02840E+06  67140.      1119.0      46.625     0.12765    
1
 
 SOLVING FOR HEAD 
                                                   Max.-Head-Change                         Max.-Flux-Residual
  Residual-Control   Outer-Iter.   Inner-Iter.     Column Row Layer    Maximum-Head-Change  Column Row Layer    Maximum-Flux-Residual          L2-NORM 
          0                 1           2             2    2     1       0.6863577385E-02       2    2    1         0.3576123669E+00      0.1650859368E+01
          0                 2           2             8    2     1       0.2352530808E-02       2    2    1         0.6217784116E-01      0.4724206921E+00
          0                 3           2             8    2     1       0.1057466820E-02       8    2    1         0.2746019635E-01      0.1875766383E+00
          0                 4           2             8    2     1       0.4753324167E-03       8    2    1         0.1234340401E-01      0.8224477258E-01
          0                 5           2             8    2     1       0.2136620348E-03       8    2    1         0.5548371042E-02      0.3669679472E-01
          0                 6           1             8    2     1       0.9604096589E-04       8    2    1         0.2493993329E-02      0.1641847538E-01
          0                 7           1             8    2     1       0.4317028332E-04       8    2    1         0.1121048257E-02      0.7349090428E-02
          0                 8           1             8    2     1       0.1940494833E-04       8    2    1         0.5039095015E-03      0.3289887451E-02
          0                 9           1             8    2     1       0.8722465816E-05       8    2    1         0.2265061490E-03      0.1472833105E-02

    ------------------------------------------------
       NWT REQUIRED            9 OUTER ITERATIONS 
       AND A TOTAL OF         14 INNER ITERATIONS.
    ------------------------------------------------

 NO OUTPUT CONTROL FOR STRESS PERIOD    3   TIME STEP   16
 
 SOLVING FOR HEAD 
                                                   Max.-Head-Change                         Max.-Flux-Residual
  Residual-Control   Outer-Iter.   Inner-Iter.     Column Row Layer    Maximum-Head-Change  Column Row Layer    Maximum-Flux-Residual          L2-NORM 
          0                 1           2             2    2     1       0.6838158991E-02       2    2    1         0.3562730137E+00      0.1647476688E+01
          0                 2           2             8    2     1       0.2352132793E-02       2    2    1         0.6194907260E-01      0.4714521299E+00
          0                 3           2             8    2     1       0.1057286624E-02       8    2    1         0.2745554445E-01      0.1871572532E+00
          0                 4           2             8    2     1       0.4752508313E-03       8    2    1         0.1234129790E-01      0.8205794981E-01
          0                 5           2             8    2     1       0.2136250952E-03       8    2    1         0.5547417476E-02      0.3661355257E-01
          0                 6           1             8    2     1       0.9602423947E-04       8    2    1         0.2493561566E-02      0.1638140099E-01
          0                 7           1             8    2     1       0.4316270946E-04       8    2    1         0.1120852756E-02      0.7332578413E-02
          0                 8           1             8    2     1       0.1940151881E-04       8    2    1         0.5038209748E-03      0.3282534486E-02
          0                 9           1             8    2     1       0.8720912877E-05       8    2    1         0.2264660588E-03      0.1469554467E-02

    ------------------------------------------------
       NWT REQUIRED            9 OUTER ITERATIONS 
       AND A TOTAL OF         14 INNER ITERATIONS.
    ------------------------------------------------

 NO OUTPUT CONTROL FOR STRESS PERIOD    3   TIME STEP   17
 
 SOLVING FOR HEAD 
                                                   Max.-Head-Change                         Max.-Flux-Residual
  Residual-Control   Outer-Iter.   Inner-Iter.     Column Row Layer    Maximum-Head-Change  Column Row Layer    Maximum-Flux-Residual          L2-NORM 
          0                 1           2             2    2     1       0.6813257482E-02       2    2    1         0.3549609089E+00      0.1644299963E+01
          0                 2           2             8    2     1       0.2351780342E-02       2    2    1         0.6172495477E-01      0.4705003323E+00
          0                 3           2             8    2     1       0.1057126801E-02       8    2    1         0.2745142389E-01      0.1867421957E+00
          0                 4           2             8    2     1       0.4751783558E-03       8    2    1         0.1233942938E-01      0.8187268632E-01
          0                 5           2             8    2     1       0.2135922288E-03       8    2    1         0.5546570150E-02      0.3653099382E-01
          0                 6           1             8    2     1       0.9600933510E-04       8    2    1         0.2493177319E-02      0.1634462605E-01
          0                 7           1             8    2     1       0.4315595021E-04       8    2    1         0.1120678501E-02      0.7316200656E-02
          0                 8           1             8    2     1       0.1939845320E-04       8    2    1         0.5037419519E-03      0.3275239742E-02
          0                 9           1             8    2     1       0.8719522760E-05       8    2    1         0.2264302269E-03      0.1466305162E-02

    ------------------------------------------------
       NWT REQUIRED            9 OUTER ITERATIONS 
       AND A TOTAL OF         14 INNER ITERATIONS.
    ------------------------------------------------

 NO OUTPUT CONTROL FOR STRESS PERIOD    3   TIME STEP   18
 
 SOLVING FOR HEAD 
                                                   Max.-Head-Change                         Max.-Flux-Residual
  Residual-Control   Outer-Iter.   Inner-Iter.     Column Row Layer    Maximum-Head-Change  Column Row Layer    Maximum-Flux-Residual          L2-NORM 
          0                 1           2             2    2     1       0.6788860987E-02       2    2    1         0.3536754653E+00      0.1641318644E+01
          0                 2           2             8    2     1       0.2351423951E-02       2    2    1         0.6150537707E-01      0.4695671084E+00
          0                 3           2             8    2     1       0.1056965206E-02       8    2    1         0.2744725733E-01      0.1863312249E+00
          0                 4           2             8    2     1       0.4751050843E-03       8    2    1         0.1233754017E-01      0.8168902074E-01
          0                 5           2             8    2     1       0.2135590043E-03       8    2    1         0.5545713523E-02      0.3644911296E-01
          0                 6           1             8    2     1       0.9599426991E-04       8    2    1         0.2492788894E-02      0.1630815207E-01
          0                 7           1             8    2     1       0.4314911893E-04       8    2    1         0.1120502369E-02      0.7299953786E-02
          0                 8           1             8    2     1       0.1939535557E-04       8    2    1         0.5036620818E-03      0.3268002185E-02
          0                 9           1             8    2     1       0.8718117886E-05       8    2    1         0.2263940045E-03      0.1463081384E-02

    ------------------------------------------------
       NWT REQUIRED            9 OUTER ITERATIONS 
       AND A TOTAL OF         14 INNER ITERATIONS.
    ------------------------------------------------

 NO OUTPUT CONTROL FOR STRESS PERIOD    3   TIME STEP   19
 
 SOLVING FOR HEAD 
                                                   Max.-Head-Change                         Max.-Flux-Residual
  Residual-Control   Outer-Iter.   Inner-Iter.     Column Row Layer    Maximum-Head-Change  Column Row Layer    Maximum-Flux-Residual          L2-NORM 
          0                 1           2             2    2     1       0.6764871402E-02       2    2    1         0.3524114837E+00      0.1638501207E+01
          0                 2           2             8    2     1       0.2351063317E-02       2    2    1         0.6128945948E-01      0.4686483234E+00
          0                 3           2             8    2     1       0.1056801629E-02       8    2    1         0.2744304090E-01      0.1859231197E+00
          0                 4           2             8    2     1       0.4750308874E-03       8    2    1         0.1233562766E-01      0.8150640591E-01
          0                 5           2             8    2     1       0.2135253497E-03       8    2    1         0.5544846034E-02      0.3636769320E-01
          0                 6           1             8    2     1       0.9597900438E-04       8    2    1         0.2492395411E-02      0.1627187924E-01
          0                 7           1             8    2     1       0.4314219485E-04       8    2    1         0.1120323893E-02      0.7283798556E-02
          0                 8           1             8    2     1       0.1939221493E-04       8    2    1         0.5035811259E-03      0.3260804465E-02
          0                 9           1             8    2     1       0.8716693254E-05       8    2    1         0.2263572841E-03      0.1459874864E-02

    ------------------------------------------------
       NWT REQUIRED            9 OUTER ITERATIONS 
       AND A TOTAL OF         14 INNER ITERATIONS.
    ------------------------------------------------

 NO OUTPUT CONTROL FOR STRESS PERIOD    3   TIME STEP   20
 
 SOLVING FOR HEAD 
                                                   Max.-Head-Change                         Max.-Flux-Residual
  Residual-Control   Outer-Iter.   Inner-Iter.     Column Row Layer    Maximum-Head-Change  Column Row Layer    Maximum-Flux-Residual          L2-NORM 
          0                 1           2             2    2     1       0.6741365899E-02       2    2    1         0.3511730596E+00      0.1635823145E+01
          0                 2           2             8    2     1       0.2350698516E-02       2    2    1         0.6107789367E-01      0.4677431549E+00
          0                 3           2             8    2     1       0.1056636186E-02       8    2    1         0.2743877585E-01      0.1855181717E+00
          0                 4           2             8    2     1       0.4749558563E-03       8    2    1         0.1233369340E-01      0.8132501873E-01
          0                 5           2             8    2     1       0.2134913213E-03       8    2    1         0.5543968806E-02      0.3628679871E-01
          0                 6           1             8    2     1       0.9596357178E-04       8    2    1         0.2491997569E-02      0.1623583872E-01
          0                 7           1             8    2     1       0.4313519550E-04       8    2    1         0.1120143460E-02      0.7267739501E-02
          0                 8           1             8    2     1       0.1938904077E-04       8    2    1         0.5034993008E-03      0.3253651377E-02
          0                 9           1             8    2     1       0.8715253864E-05       8    2    1         0.2263201765E-03      0.1456688458E-02

    ------------------------------------------------
       NWT REQUIRED            9 OUTER ITERATIONS 
       AND A TOTAL OF         14 INNER ITERATIONS.
    ------------------------------------------------

 NO OUTPUT CONTROL FOR STRESS PERIOD    3   TIME STEP   21
 
 SOLVING FOR HEAD 
                                                   Max.-Head-Change                         Max.-Flux-Residual
  Residual-Control   Outer-Iter.   Inner-Iter.     Column Row Layer    Maximum-Head-Change  Column Row Layer    Maximum-Flux-Residual          L2-NORM 
          0                 1           2             2    2     1       0.6718333907E-02       2    2    1         0.3499595932E+00      0.1633274123E+01
          0                 2           2             8    2     1       0.2350280303E-02       8    2    1         0.6103215837E-01      0.4668526523E+00
          0                 3           2             8    2     1       0.1056446794E-02       8    2    1         0.2743388764E-01      0.1851170540E+00
          0                 4           2             8    2     1       0.4748700865E-03       8    2    1         0.1233147971E-01      0.8114517207E-01
          0                 5           2             8    2     1       0.2134524780E-03       8    2    1         0.5542966289E-02      0.3620657729E-01
          0                 6           1             8    2     1       0.9594598022E-04       8    2    1         0.2491543549E-02      0.1620009053E-01
          0                 7           1             8    2     1       0.4312722846E-04       8    2    1         0.1119937838E-02      0.7251813824E-02
          0                 8           1             8    2     1       0.1938543242E-04       8    2    1         0.5034061729E-03      0.3246555840E-02
          0                 9           1             8    2     1       0.8713619639E-05       8    2    1         0.2262779985E-03      0.1453525843E-02

    ------------------------------------------------
       NWT REQUIRED            9 OUTER ITERATIONS 
       AND A TOTAL OF         14 INNER ITERATIONS.
    ------------------------------------------------

 NO OUTPUT CONTROL FOR STRESS PERIOD    3   TIME STEP   22
 
 SOLVING FOR HEAD 
                                                   Max.-Head-Change                         Max.-Flux-Residual
  Residual-Control   Outer-Iter.   Inner-Iter.     Column Row Layer    Maximum-Head-Change  Column Row Layer    Maximum-Flux-Residual          L2-NORM 
          0                 1           2             2    2     1       0.6695764974E-02       2    2    1         0.3487705536E+00      0.1630836508E+01
          0                 2           2             8    2     1       0.2349907180E-02       8    2    1         0.6102254125E-01      0.4659722451E+00
          0                 3           2             8    2     1       0.1056277538E-02       8    2    1         0.2742952510E-01      0.1847179087E+00
          0                 4           2             8    2     1       0.4747933086E-03       8    2    1         0.1232950078E-01      0.8096604832E-01
          0                 5           2             8    2     1       0.2134176503E-03       8    2    1         0.5542068609E-02      0.3612666475E-01
          0                 6           1             8    2     1       0.9593018196E-04       8    2    1         0.2491136351E-02      0.1616448148E-01
          0                 7           1             8    2     1       0.4312006278E-04       8    2    1         0.1119753134E-02      0.7235945271E-02
          0                 8           1             8    2     1       0.1938218198E-04       8    2    1         0.5033223880E-03      0.3239484810E-02
          0                 9           1             8    2     1       0.8712144984E-05       8    2    1         0.2262399904E-03      0.1450375382E-02

    ------------------------------------------------
       NWT REQUIRED            9 OUTER ITERATIONS 
       AND A TOTAL OF         14 INNER ITERATIONS.
    ------------------------------------------------

 NO OUTPUT CONTROL FOR STRESS PERIOD    3   TIME STEP   23
 
 SOLVING FOR HEAD 
                                                   Max.-Head-Change                         Max.-Flux-Residual
  Residual-Control   Outer-Iter.   Inner-Iter.     Column Row Layer    Maximum-Head-Change  Column Row Layer    Maximum-Flux-Residual          L2-NORM 
          0                 1           2             2    2     1       0.6673562064E-02       2    2    1         0.3476008194E+00      0.1627505105E+01
          0                 2           2             8    2     1       0.2349529683E-02       8    2    1         0.6101280998E-01      0.4649677064E+00
          0                 3           2             8    2     1       0.1056106328E-02       8    2    1         0.2742511157E-01      0.1843139033E+00
          0                 4           2             8    2     1       0.4747156589E-03       8    2    1         0.1232749907E-01      0.8078796304E-01
          0                 5           2             8    2     1       0.2133824337E-03       8    2    1         0.5541160763E-02      0.3604738142E-01
          0                 6           1             8    2     1       0.9591421012E-04       8    2    1         0.2490724611E-02      0.1612915375E-01
          0                 7           1             8    2     1       0.4311281931E-04       8    2    1         0.1119566400E-02      0.7220204890E-02
          0                 8           1             8    2     1       0.1937889677E-04       8    2    1         0.5032376976E-03      0.3232472382E-02
          0                 9           1             8    2     1       0.8710655323E-05       8    2    1         0.2262015851E-03      0.1447249775E-02

    ------------------------------------------------
       NWT REQUIRED            9 OUTER ITERATIONS 
       AND A TOTAL OF         14 INNER ITERATIONS.
    ------------------------------------------------

 NO OUTPUT CONTROL FOR STRESS PERIOD    3   TIME STEP   24
 
 SOLVING FOR HEAD 
                                                   Max.-Head-Change                         Max.-Flux-Residual
  Residual-Control   Outer-Iter.   Inner-Iter.     Column Row Layer    Maximum-Head-Change  Column Row Layer    Maximum-Flux-Residual          L2-NORM 
          0                 1           2             2    2     1       0.6651891063E-02       2    2    1         0.3464591248E+00      0.1624667689E+01
          0                 2           2             8    2     1       0.2349147613E-02       8    2    1         0.6100296234E-01      0.4640750611E+00
          0                 3           2             8    2     1       0.1055933012E-02       8    2    1         0.2742064442E-01      0.1839188293E+00
          0                 4           2             8    2     1       0.4746370398E-03       8    2    1         0.1232547267E-01      0.8061112341E-01
          0                 5           2             8    2     1       0.2133467714E-03       8    2    1         0.5540241554E-02      0.3596849731E-01
          0                 6           1             8    2     1       0.9589803344E-04       8    2    1         0.2490307647E-02      0.1609399839E-01
          0                 7           1             8    2     1       0.4310548130E-04       8    2    1         0.1119377263E-02      0.7204539347E-02
          0                 8           1             8    2     1       0.1937556854E-04       8    2    1         0.5031519112E-03      0.3225489314E-02
          0                 9           1             8    2     1       0.8709145653E-05       8    2    1         0.2261626730E-03      0.1444137972E-02

    ------------------------------------------------
       NWT REQUIRED            9 OUTER ITERATIONS 
       AND A TOTAL OF         14 INNER ITERATIONS.
    ------------------------------------------------

 NO OUTPUT CONTROL FOR STRESS PERIOD    3   TIME STEP   25
 
 SOLVING FOR HEAD 
                                                   Max.-Head-Change                         Max.-Flux-Residual
  Residual-Control   Outer-Iter.   Inner-Iter.     Column Row Layer    Maximum-Head-Change  Column Row Layer    Maximum-Flux-Residual          L2-NORM 
          0                 1           2             2    2     1       0.6630565854E-02       2    2    1         0.3453357069E+00      0.1622374017E+01
          0                 2           2             8    2     1       0.2348711658E-02       8    2    1         0.6099171342E-01      0.4632124578E+00
          0                 3           2             8    2     1       0.1055735518E-02       8    2    1         0.2741554849E-01      0.1835269582E+00
          0                 4           2             8    2     1       0.4745475715E-03       8    2    1         0.1232316413E-01      0.8043521404E-01
          0                 5           2             8    2     1       0.2133062414E-03       8    2    1         0.5539195758E-02      0.3589001002E-01
          0                 6           1             8    2     1       0.9587967303E-04       8    2    1         0.2489833887E-02      0.1605901224E-01
          0                 7           1             8    2     1       0.4309716386E-04       8    2    1         0.1119162645E-02      0.7188945843E-02
          0                 8           1             8    2     1       0.1937180062E-04       8    2    1         0.5030546900E-03      0.3218539595E-02
          0                 9           1             8    2     1       0.8707439145E-05       8    2    1         0.2261186363E-03      0.1441040444E-02

    ------------------------------------------------
       NWT REQUIRED            9 OUTER ITERATIONS 
       AND A TOTAL OF         14 INNER ITERATIONS.
    ------------------------------------------------

 NO OUTPUT CONTROL FOR STRESS PERIOD    3   TIME STEP   26
 
 SOLVING FOR HEAD 
                                                   Max.-Head-Change                         Max.-Flux-Residual
  Residual-Control   Outer-Iter.   Inner-Iter.     Column Row Layer    Maximum-Head-Change  Column Row Layer    Maximum-Flux-Residual          L2-NORM 
          0                 1           2             2    2     1       0.6609665192E-02       2    2    1         0.3442346852E+00      0.1620153973E+01
          0                 2           2             8    2     1       0.2348320515E-02       8    2    1         0.6098163284E-01      0.4623565729E+00
          0                 3           2             8    2     1       0.1055558069E-02       8    2    1         0.2741097517E-01      0.1831377909E+00
          0                 4           2             8    2     1       0.4744670705E-03       8    2    1         0.1232108937E-01      0.8026035230E-01
          0                 5           2             8    2     1       0.2132697219E-03       8    2    1         0.5538254525E-02      0.3581195828E-01
          0                 6           1             8    2     1       0.9586310668E-04       8    2    1         0.2489406906E-02      0.1602422013E-01
          0                 7           1             8    2     1       0.4308964902E-04       8    2    1         0.1118968952E-02      0.7173439362E-02
          0                 8           1             8    2     1       0.1936839210E-04       8    2    1         0.5029668249E-03      0.3211628389E-02
          0                 9           1             8    2     1       0.8705892708E-05       8    2    1         0.2260787765E-03      0.1437959921E-02

    ------------------------------------------------
       NWT REQUIRED            9 OUTER ITERATIONS 
       AND A TOTAL OF         14 INNER ITERATIONS.
    ------------------------------------------------

 NO OUTPUT CONTROL FOR STRESS PERIOD    3   TIME STEP   27
 
 SOLVING FOR HEAD 
                                                   Max.-Head-Change                         Max.-Flux-Residual
  Residual-Control   Outer-Iter.   Inner-Iter.     Column Row Layer    Maximum-Head-Change  Column Row Layer    Maximum-Flux-Residual          L2-NORM 
          0                 1           2             2    2     1       0.6589092582E-02       2    2    1         0.3431509817E+00      0.1617911068E+01
          0                 2           2             8    2     1       0.2347924665E-02       8    2    1         0.6097142969E-01      0.4615245949E+00
          0                 3           2             8    2     1       0.1055378511E-02       8    2    1         0.2740634693E-01      0.1827537553E+00
          0                 4           2             8    2     1       0.4743856251E-03       8    2    1         0.1231899001E-01      0.8008748908E-01
          0                 5           2             8    2     1       0.2132327800E-03       8    2    1         0.5537302275E-02      0.3573478328E-01
          0                 6           1             8    2     1       0.9584635074E-04       8    2    1         0.2488974984E-02      0.1598981446E-01
          0                 7           1             8    2     1       0.4308204965E-04       8    2    1         0.1118773051E-02      0.7158103558E-02
          0                 8           1             8    2     1       0.1936494532E-04       8    2    1         0.5028779738E-03      0.3204792182E-02
          0                 9           1             8    2     1       0.8704329764E-05       8    2    1         0.2260384797E-03      0.1434912552E-02

    ------------------------------------------------
       NWT REQUIRED            9 OUTER ITERATIONS 
       AND A TOTAL OF         14 INNER ITERATIONS.
    ------------------------------------------------

 NO OUTPUT CONTROL FOR STRESS PERIOD    3   TIME STEP   28
 
 SOLVING FOR HEAD 
                                                   Max.-Head-Change                         Max.-Flux-Residual
  Residual-Control   Outer-Iter.   Inner-Iter.     Column Row Layer    Maximum-Head-Change  Column Row Layer    Maximum-Flux-Residual          L2-NORM 
          0                 1           2             2    2     1       0.6569015217E-02       2    2    1         0.3420933462E+00      0.1615920519E+01
          0                 2           2             8    2     1       0.2347474550E-02       8    2    1         0.6095981782E-01      0.4606971186E+00
          0                 3           2             8    2     1       0.1055174552E-02       8    2    1         0.2740108524E-01      0.1823713367E+00
          0                 4           2             8    2     1       0.4742932076E-03       8    2    1         0.1231660581E-01      0.7991533833E-01
          0                 5           2             8    2     1       0.2131909047E-03       8    2    1         0.5536221959E-02      0.3565791211E-01
          0                 6           1             8    2     1       0.9582737757E-04       8    2    1         0.2488485490E-02      0.1595768492E-01
          0                 7           1             8    2     1       0.4307345283E-04       8    2    1         0.1118551256E-02      0.7146980896E-02
          0                 8           1             8    2     1       0.1936104984E-04       8    2    1         0.5027774787E-03      0.3198003195E-02
          0                 9           1             8    2     1       0.8702564981E-05       8    2    1         0.2259929510E-03      0.1431868219E-02

    ------------------------------------------------
       NWT REQUIRED            9 OUTER ITERATIONS 
       AND A TOTAL OF         14 INNER ITERATIONS.
    ------------------------------------------------

 NO OUTPUT CONTROL FOR STRESS PERIOD    3   TIME STEP   29
 
 SOLVING FOR HEAD 
                                                   Max.-Head-Change                         Max.-Flux-Residual
  Residual-Control   Outer-Iter.   Inner-Iter.     Column Row Layer    Maximum-Head-Change  Column Row Layer    Maximum-Flux-Residual          L2-NORM 
          0                 1           2             2    2     1       0.8807719018E-02       2    2    1         0.4592149883E+00      0.1920189699E+01
          0                 2           2             8    2     1       0.2347069243E-02       2    2    1         0.7975924558E-01      0.4805256242E+00
          0                 3           2             8    2     1       0.1054990716E-02       8    2    1         0.2739634649E-01      0.1834599784E+00
          0                 4           2             8    2     1       0.4742098273E-03       8    2    1         0.1231445646E-01      0.7990329066E-01
          0                 5           2             8    2     1       0.2131530879E-03       8    2    1         0.5535247101E-02      0.3562067959E-01
          0                 6           1             8    2     1       0.9581022645E-04       8    2    1         0.2488043347E-02      0.1593688887E-01
          0                 7           1             8    2     1       0.4306567413E-04       8    2    1         0.1118350731E-02      0.7134337625E-02
          0                 8           1             8    2     1       0.1935752278E-04       8    2    1         0.5026865430E-03      0.3194168896E-02
          0                 9           1             8    2     1       0.8700965271E-05       8    2    1         0.2259517075E-03      0.1430166601E-02

    ------------------------------------------------
       NWT REQUIRED            9 OUTER ITERATIONS 
       AND A TOTAL OF         14 INNER ITERATIONS.
    ------------------------------------------------

 NO OUTPUT CONTROL FOR STRESS PERIOD    3   TIME STEP   30



 STREAM LISTING     PERIOD      3   STEP       30

 LAYER ROW COL. STREAM  RCH.  FLOW INTO     FLOW TO   FLOW OUT OF   OVRLND.     DIRECT     STREAM       STREAM     STREAM     STREAM   STREAMBED  STREAMBED
                SEG.NO.  NO.  STRM. RCH.    AQUIFER    STRM. RCH.    RUNOFF     PRECIP       ET          HEAD       DEPTH      WIDTH   CONDCTNC.   GRADIENT

   1    1    1     1     1    4.0813E+01  3.0672E-01   4.0506E+01  0.000E+00  0.000E+00  0.000E+00  1.09439E+03  1.337E+00  1.571E+01  7.072E-02  1.446E+00
   1    2    2     1     2    4.0506E+01  4.7505E-01   4.0031E+01  0.000E+00  0.000E+00  0.000E+00  1.08939E+03  1.334E+00  1.566E+01  1.096E-01  1.445E+00
   1    3    3     1     3    4.0031E+01  4.0519E-01   3.9626E+01  0.000E+00  0.000E+00  0.000E+00  1.08375E+03  1.331E+00  1.559E+01  9.355E-02  1.444E+00
   1    3    4     1     4    3.9626E+01  3.7315E-01   3.9253E+01  0.000E+00  0.000E+00  0.000E+00  1.07874E+03  1.328E+00  1.553E+01  8.621E-02  1.443E+00
   1    4    5     2     1    3.7253E+01  3.5331E-01   3.6899E+01  0.000E+00  0.000E+00  0.000E+00  1.07346E+03  1.530E+00  1.200E+01  7.800E-02  1.510E+00
   1    5    6     2     2    3.6899E+01  2.7132E-01   3.6628E+01  0.000E+00  0.000E+00  0.000E+00  1.06803E+03  1.522E+00  1.200E+01  6.000E-02  1.507E+00
   1    6    6     2     3    3.6628E+01  2.7091E-01   3.6357E+01  0.000E+00  0.000E+00  0.000E+00  1.06331E+03  1.515E+00  1.200E+01  6.000E-02  1.505E+00
   1    7    6     2     4    3.6357E+01  2.7051E-01   3.6087E+01  0.000E+00  0.000E+00  0.000E+00  1.05858E+03  1.508E+00  1.200E+01  6.000E-02  1.503E+00
   1    8    6     2     5    3.6087E+01  2.7010E-01   3.5817E+01  0.000E+00  0.000E+00  0.000E+00  1.05386E+03  1.502E+00  1.200E+01  6.000E-02  1.501E+00
   1    3    5     3     1    2.0000E+00  2.8252E-01   1.7175E+00  0.000E+00  0.000E+00  0.000E+00  1.07555E+03  1.909E+00  9.636E+00  7.227E-02  1.955E+00
   1    3    6     3     2    1.7175E+00  2.4905E-01   1.4684E+00  0.000E+00  0.000E+00  0.000E+00  1.07264E+03  1.727E+00  8.909E+00  6.682E-02  1.864E+00
   1    3    7     3     3    1.4684E+00  1.9718E-01   1.2712E+00  0.000E+00  0.000E+00  0.000E+00  1.06987E+03  1.555E+00  8.218E+00  5.547E-02  1.777E+00
   1    4    8     3     4    1.2712E+00  2.2567E-01   1.0456E+00  0.000E+00  0.000E+00  0.000E+00  1.06682E+03  1.364E+00  7.455E+00  6.709E-02  1.682E+00
   1    5    8     3     5    1.0456E+00  1.5790E-01   8.8768E-01  0.000E+00  0.000E+00  0.000E+00  1.06362E+03  1.164E+00  6.655E+00  4.991E-02  1.582E+00
   1    6    8     3     6    8.8768E-01  5.5980E-02   8.3170E-01  0.000E+00  0.000E+00  0.000E+00  1.06158E+03  1.036E+00  6.145E+00  1.844E-02  1.518E+00
   1    5   10     4     1    1.0000E+01  9.0919E-02   9.9091E+00  0.000E+00  0.000E+00  0.000E+00  1.07836E+03  6.368E-01  1.000E+01  2.500E-02  1.212E+00
   1    5    9     4     2    9.9091E+00  1.8158E-01   9.7275E+00  0.000E+00  0.000E+00  0.000E+00  1.07154E+03  6.315E-01  1.000E+01  5.000E-02  1.211E+00
   1    6    8     4     3    9.7275E+00  1.2689E-01   9.6006E+00  0.000E+00  0.000E+00  0.000E+00  1.06381E+03  6.256E-01  1.000E+01  3.500E-02  1.209E+00
   1    6    8     5     1    1.0432E+01  2.2686E-01   1.0205E+01  0.000E+00  0.000E+00  0.000E+00  1.05868E+03  6.790E-01  1.542E+01  6.166E-02  1.226E+00
   1    7    7     5     2    1.0205E+01  2.7894E-01   9.9265E+00  0.000E+00  0.000E+00  0.000E+00  1.05417E+03  6.732E-01  1.519E+01  7.594E-02  1.224E+00
   1    8    7     5     3    9.9265E+00  1.9221E-01   9.7343E+00  0.000E+00  0.000E+00  0.000E+00  1.04992E+03  6.676E-01  1.497E+01  5.241E-02  1.223E+00
   1    8    6     5     4    9.7343E+00  1.3577E-01   9.5985E+00  0.000E+00  0.000E+00  0.000E+00  1.04691E+03  6.637E-01  1.482E+01  3.706E-02  1.221E+00
   1    9    6     6     1    4.5415E+01  2.8462E-01   4.5130E+01  0.000E+00  0.000E+00  0.000E+00  1.04447E+03  1.744E+00  1.200E+01  6.000E-02  1.581E+00
   1   10    7     6     2    4.5130E+01  2.8423E-01   4.4846E+01  0.000E+00  0.000E+00  0.000E+00  1.03992E+03  1.737E+00  1.200E+01  6.000E-02  1.579E+00
   1   11    7     6     3    4.4846E+01  2.8383E-01   4.4562E+01  0.000E+00  0.000E+00  0.000E+00  1.03537E+03  1.731E+00  1.200E+01  6.000E-02  1.577E+00
   1   12    7     6     4    4.4562E+01  2.8344E-01   4.4279E+01  0.000E+00  0.000E+00  0.000E+00  1.03081E+03  1.724E+00  1.200E+01  6.000E-02  1.575E+00
   1   13    7     6     5    4.4279E+01  8.7746E-03   4.4270E+01  0.000E+00  0.000E+00  0.000E+00  1.02763E+03  1.721E+00  1.200E+01  2.400E-02  1.219E-01
   1   14    9     7     1    1.5000E+02  1.2457E+00   1.4875E+02  0.000E+00  0.000E+00  0.000E+00  1.03987E+03  2.288E+00  5.530E+01  5.593E-01  7.424E-01
   1   13    8     7     2    1.4875E+02  1.7274E+00   1.4703E+02  0.000E+00  0.000E+00  0.000E+00  1.03478E+03  2.280E+00  5.526E+01  6.148E-01  9.365E-01
   1   13    7     7     3    1.4703E+02  1.3556E+00   1.4567E+02  0.000E+00  0.000E+00  0.000E+00  1.02969E+03  2.272E+00  5.522E+01  5.585E-01  8.091E-01
   1   13    6     8     1    1.8994E+02  9.0311E-01   1.8904E+02  0.000E+00  0.000E+00  0.000E+00  1.02495E+03  3.075E+00  4.459E+01  4.543E-01  6.626E-01
   1   13    5     8     2    1.8904E+02  1.3683E-01   1.8890E+02  0.000E+00  0.000E+00  0.000E+00  1.01870E+03  3.072E+00  4.454E+01  4.539E-01  1.005E-01
   1   13    4     8     3    1.8890E+02 -2.4486E+00   1.9135E+02  0.000E+00  0.000E+00  0.000E+00  1.01245E+03  3.079E+00  4.464E+01  4.549E+00 -1.794E-01
   1   13    3     8     4    1.9135E+02 -3.5543E+00   1.9490E+02  0.000E+00  0.000E+00  0.000E+00  1.00622E+03  3.097E+00  4.490E+01  4.576E+00 -2.589E-01
   1   13    2     8     5    1.9490E+02 -2.4021E+00   1.9731E+02  0.000E+00  0.000E+00  0.000E+00  9.99990E+02  3.115E+00  4.516E+01  4.602E+00 -1.740E-01
   1   13    1     8     6    1.9731E+02 -1.8065E+00   1.9911E+02  0.000E+00  0.000E+00  0.000E+00  9.95002E+02  3.127E+00  4.534E+01  2.772E+00 -2.172E-01
   1    6    8     9     1    0.0000E+00  0.0000E+00   0.0000E+00  0.000E+00  0.000E+00  0.000E+00  1.07850E+03  0.000E+00  4.000E+00  0.000E+00  1.000E+00





UNSATURATED ZONE PACKAGE VOLUMETRIC BUDGET FOR  TIME STEP    30 STRESS PERIOD    3
  ------------------------------------------------------------------------------



     CUMULATIVE VOLUMES      L**3       RATES FOR THIS TIME STEP      L**3/T
     ------------------                 ------------------------

           IN:                                      IN:
           ---                                      ---
        INFILTRATION =      151807.6534          INFILTRATION =       0.0000E+00

          OUT:                                     OUT:
          ----                                     ----
              UZF ET =     1524231.7460                UZF ET =           0.2900
        UZF RECHARGE =   143946543.0961          UZF RECHARGE =          27.1569

            IN - OUT =  -145318967.1887              IN - OUT =         -27.4469

          STORAGE:                                 STORAGE:
          --------                                 --------
      STORAGE CHANGE =  -145314591.3634        STORAGE CHANGE =         -27.4467

 PERCENT DISCREPANCY IS DIFFERENCE BETWEEN IN-OUT MINUS CHANGE IN STORAGE
 DIVIDED BY THE AVERAGE OF IN AND OUT TIMES 100

 PERCENT DISCREPANCY =          -0.00     PERCENT DISCREPANCY =          -0.00






1
  VOLUMETRIC BUDGET FOR ENTIRE MODEL AT END OF TIME STEP   30, STRESS PERIOD   3
  ------------------------------------------------------------------------------

     CUMULATIVE VOLUMES      L**3       RATES FOR THIS TIME STEP      L**3/T
     ------------------                 ------------------------

           IN:                                      IN:
           ---                                      ---
             STORAGE     =           0.0000               STORAGE     =           0.0000
       CONSTANT HEAD     =           0.0000         CONSTANT HEAD     =           0.0000
               WELLS     =           0.0000                 WELLS     =           0.0000
     HEAD DEP BOUNDS     =     1509697.0000       HEAD DEP BOUNDS     =           0.2796
      STREAM LEAKAGE     =    57789020.0000        STREAM LEAKAGE     =          11.9113
        UZF RECHARGE     =   143946544.0000          UZF RECHARGE     =          27.1569
               GW ET     =           0.0000                 GW ET     =           0.0000
     SURFACE LEAKAGE     =           0.0000       SURFACE LEAKAGE     =           0.0000
    SUPPLEMENTARY WELLS  =           0.0000      SUPPLEMENTARY WELLS  =           0.0000

                TOTAL IN =   203245264.0000                  TOTAL IN =          39.3478

          OUT:                                     OUT:
          ----                                     ----
             STORAGE     =   142253360.0000               STORAGE     =          28.8408
       CONSTANT HEAD     =           0.0000         CONSTANT HEAD     =           0.0000
               WELLS     =           0.0000                 WELLS     =           0.0000
     HEAD DEP BOUNDS     =     1539346.1250       HEAD DEP BOUNDS     =           0.2908
      STREAM LEAKAGE     =    59244084.0000        STREAM LEAKAGE     =          10.2113
        UZF RECHARGE     =           0.0000          UZF RECHARGE     =           0.0000
               GW ET     =      149512.1719                 GW ET     =       3.0359E-10
     SURFACE LEAKAGE     =           0.0000       SURFACE LEAKAGE     =           0.0000
    SUPPLEMENTARY WELLS  =       31277.1836      SUPPLEMENTARY WELLS  =           0.0000

               TOTAL OUT =   203217584.0000                 TOTAL OUT =          39.3430

                IN - OUT =       27680.0000                  IN - OUT =       4.8523E-03

     PERCENT DISCREPANCY =           0.01         PERCENT DISCREPANCY =           0.01






         TIME SUMMARY AT END OF TIME STEP   30 IN STRESS PERIOD    3
                    SECONDS     MINUTES      HOURS       DAYS        YEARS
                    -----------------------------------------------------------
   TIME STEP LENGTH  87600.      1460.0      24.333      1.0139     2.77588E-03
 STRESS PERIOD TIME 2.62800E+06  43800.      730.00      30.417     8.32763E-02
         TOTAL TIME 5.34240E+06  89040.      1484.0      61.833     0.16929    
1
1
                            STRESS PERIOD NO.    4, LENGTH =   2628000.    
                            -----------------------------------------------

                              NUMBER OF TIME STEPS =    30

                               MULTIPLIER FOR DELT =     1.000

                            INITIAL TIME STEP SIZE =   87600.00    

 WELL NO.  LAYER   ROW   COL   STRESS RATE         
 --------------------------------------------------
      1      1      6      4       0.000    
      2      1      6      7       0.000    
      3      1      7      4       0.000    
      4      1      7      5       0.000    
      5      1      8      4       0.000    
      6      1      8      5       0.000    
      7      1      9      4       0.000    
      8      1      9      5       0.000    
      9      1     10      4       0.000    
     10      1     10      5       0.000    

     10 WELLS

 REUSING NON-PARAMETER GHB CELLS FROM LAST STRESS PERIOD

      2 GHB CELLS

 REUSING STREAM SEGMENT DATA FROM LAST STRESS PERIOD



            AREAL INFILTRATION RATE
 READING ON UNIT   19 WITH FORMAT: (10F4.0)            

            1           2           3           4           5           6           7           8           9          10
 ........................................................................................................................
   1    0.000       0.000       0.000       0.000       0.000       0.000       0.000       0.000       0.000       0.000    
   2    0.000       0.000       0.000       0.000       0.000       0.000       0.000       0.000       0.000       0.000    
   3    0.000       0.000       0.000       0.000       0.000       0.000       0.000       0.000       0.000       0.000    
   4    0.000       0.000       0.000       0.000       0.000       0.000       0.000       0.000       0.000       0.000    
   5    0.000       0.000       0.000       0.000       0.000       0.000       0.000       0.000       0.000       0.000    
   6    0.000       0.000       0.000       0.000       0.000       0.000       0.000       0.000       0.000       0.000    
   7    0.000       0.000       0.000       0.000       0.000       0.000       0.000       0.000       0.000       0.000    
   8    0.000       0.000       0.000       0.000       0.000       0.000       0.000       0.000       0.000       0.000    
   9    0.000       0.000       0.000       0.000       0.000       0.000       0.000       0.000       0.000       0.000    
  10    0.000       0.000       0.000       0.000       0.000       0.000       0.000       0.000       0.000       0.000    
  11    0.000       0.000       0.000       0.000       0.000       0.000       0.000       0.000       0.000       0.000    
  12    0.000       0.000       0.000       0.000       0.000       0.000       0.000       0.000       0.000       0.000    
  13    0.000       0.000       0.000       0.000       0.000       0.000       0.000       0.000       0.000       0.000    
  14    0.000       0.000       0.000       0.000       0.000       0.000       0.000       0.000       0.000       0.000    
  15    0.000       0.000       0.000       0.000       0.000       0.000       0.000       0.000       0.000       0.000    

                  ET RATE =  1.000000E-10

 USING ET EXTINCTION DEPTH FROM PREVIOUS STRESS PERIOD. CURRENT PERIOD IS:       4

 USING EXTINCTION WATER CONTENT FROM PREVIOUS STRESS PERIOD. CURRENT PERIOD IS:       4

 PROCESSING AGO STRESS PERIOD DATA

 READING AGO STRESS PERIOD DATA

 READING IRRIGATION STREAM

 READING IRRIGATION WELL

 READING SUPPLEMENTAL WEL

 END PROCESSING AGO STRESS PERIOD DATA OPTIONS
 
 SOLVING FOR HEAD 
                                                   Max.-Head-Change                         Max.-Flux-Residual
  Residual-Control   Outer-Iter.   Inner-Iter.     Column Row Layer    Maximum-Head-Change  Column Row Layer    Maximum-Flux-Residual          L2-NORM 
          0                 1           2             2    2     1       0.8884172289E-02       2    2    1         0.4632004181E+00      0.1903917014E+01
          0                 2           2             8    2     1       0.2346659002E-02       2    2    1         0.8045164250E-01      0.4798919621E+00
          0                 3           2             8    2     1       0.1054804627E-02       8    2    1         0.2739154998E-01      0.1832804971E+00
          0                 4           2             8    2     1       0.4741254179E-03       8    2    1         0.1231228072E-01      0.7980098035E-01
          0                 5           2             8    2     1       0.2131148016E-03       8    2    1         0.5534260206E-02      0.3557300589E-01
          0                 6           1             8    2     1       0.9579286074E-04       8    2    1         0.2487595714E-02      0.1591532882E-01
          0                 7           1             8    2     1       0.4305779863E-04       8    2    1         0.1118147710E-02      0.7124672997E-02
          0                 8           1             8    2     1       0.1935395094E-04       8    2    1         0.5025944630E-03      0.3189843283E-02
          0                 9           1             8    2     1       0.8699345802E-05       8    2    1         0.2259099490E-03      0.1428231518E-02

    ------------------------------------------------
       NWT REQUIRED            9 OUTER ITERATIONS 
       AND A TOTAL OF         14 INNER ITERATIONS.
    ------------------------------------------------

 NO OUTPUT CONTROL FOR STRESS PERIOD    4   TIME STEP    1
 
 SOLVING FOR HEAD 
                                                   Max.-Head-Change                         Max.-Flux-Residual
  Residual-Control   Outer-Iter.   Inner-Iter.     Column Row Layer    Maximum-Head-Change  Column Row Layer    Maximum-Flux-Residual          L2-NORM 
          0                 1           2             2    2     1       0.8841865161E-02       2    2    1         0.4609722557E+00      0.1878333146E+01
          0                 2           2             8    2     1       0.2346194588E-02       2    2    1         0.8007076425E-01      0.4784583539E+00
          0                 3           2             8    2     1       0.1054594256E-02       8    2    1         0.2738612145E-01      0.1829879406E+00
          0                 4           2             8    2     1       0.4740301255E-03       8    2    1         0.1230982171E-01      0.7968441234E-01
          0                 5           2             8    2     1       0.2130716380E-03       8    2    1         0.5533146347E-02      0.3552148287E-01
          0                 6           1             8    2     1       0.9577330956E-04       8    2    1         0.2487091174E-02      0.1589231086E-01
          0                 7           1             8    2     1       0.4304894270E-04       8    2    1         0.1117919174E-02      0.7114377918E-02
          0                 8           1             8    2     1       0.1934993991E-04       8    2    1         0.5024909511E-03      0.3185238571E-02
          0                 9           1             8    2     1       0.8697528745E-05       8    2    1         0.2258630632E-03      0.1426181263E-02

    ------------------------------------------------
       NWT REQUIRED            9 OUTER ITERATIONS 
       AND A TOTAL OF         14 INNER ITERATIONS.
    ------------------------------------------------

 NO OUTPUT CONTROL FOR STRESS PERIOD    4   TIME STEP    2
 
 SOLVING FOR HEAD 
                                                   Max.-Head-Change                         Max.-Flux-Residual
  Residual-Control   Outer-Iter.   Inner-Iter.     Column Row Layer    Maximum-Head-Change  Column Row Layer    Maximum-Flux-Residual          L2-NORM 
          0                 1           2             2    2     1       0.8800404342E-02       2    2    1         0.4587887186E+00      0.1856778527E+01
          0                 2           2             8    2     1       0.2345774650E-02       2    2    1         0.7969749968E-01      0.4771638660E+00
          0                 3           2             8    2     1       0.1054403754E-02       8    2    1         0.2738121148E-01      0.1826978810E+00
          0                 4           2             8    2     1       0.4739437092E-03       8    2    1         0.1230759435E-01      0.7956650800E-01
          0                 5           2             8    2     1       0.2130324391E-03       8    2    1         0.5532135972E-02      0.3546924429E-01
          0                 6           1             8    2     1       0.9575552992E-04       8    2    1         0.2486632873E-02      0.1586896812E-01
          0                 7           1             8    2     1       0.4304087862E-04       8    2    1         0.1117711298E-02      0.7103940903E-02
          0                 8           1             8    2     1       0.1934628229E-04       8    2    1         0.5023966659E-03      0.3180572369E-02
          0                 9           1             8    2     1       0.8695870008E-05       8    2    1         0.2258203056E-03      0.1424086957E-02

    ------------------------------------------------
       NWT REQUIRED            9 OUTER ITERATIONS 
       AND A TOTAL OF         14 INNER ITERATIONS.
    ------------------------------------------------

 NO OUTPUT CONTROL FOR STRESS PERIOD    4   TIME STEP    3
 
 SOLVING FOR HEAD 
                                                   Max.-Head-Change                         Max.-Flux-Residual
  Residual-Control   Outer-Iter.   Inner-Iter.     Column Row Layer    Maximum-Head-Change  Column Row Layer    Maximum-Flux-Residual          L2-NORM 
          0                 1           2             2    2     1       0.8759683967E-02       2    2    1         0.4566442375E+00      0.1838551170E+01
          0                 2           2             8    2     1       0.2345349578E-02       2    2    1         0.7933089515E-01      0.4759613762E+00
          0                 3           2             8    2     1       0.1054210934E-02       8    2    1         0.2737624154E-01      0.1823997175E+00
          0                 4           2             8    2     1       0.4738562474E-03       8    2    1         0.1230533992E-01      0.7944585863E-01
          0                 5           2             8    2     1       0.2129927682E-03       8    2    1         0.5531113381E-02      0.3541607878E-01
          0                 6           1             8    2     1       0.9573753718E-04       8    2    1         0.2486169058E-02      0.1584524500E-01
          0                 7           1             8    2     1       0.4303271825E-04       8    2    1         0.1117500936E-02      0.7093335674E-02
          0                 8           1             8    2     1       0.1934258164E-04       8    2    1         0.5023012647E-03      0.3175830376E-02
          0                 9           1             8    2     1       0.8694192013E-05       8    2    1         0.2257770397E-03      0.1421965869E-02

    ------------------------------------------------
       NWT REQUIRED            9 OUTER ITERATIONS 
       AND A TOTAL OF         14 INNER ITERATIONS.
    ------------------------------------------------

 NO OUTPUT CONTROL FOR STRESS PERIOD    4   TIME STEP    4
 
 SOLVING FOR HEAD 
                                                   Max.-Head-Change                         Max.-Flux-Residual
  Residual-Control   Outer-Iter.   Inner-Iter.     Column Row Layer    Maximum-Head-Change  Column Row Layer    Maximum-Flux-Residual          L2-NORM 
          0                 1           2             2    2     1       0.8719773797E-02       2    2    1         0.4545425172E+00      0.1821346791E+01
          0                 2           2             8    2     1       0.2344870151E-02       2    2    1         0.7897157560E-01      0.4746074165E+00
          0                 3           2             8    2     1       0.1053993763E-02       8    2    1         0.2737063752E-01      0.1820920266E+00
          0                 4           2             8    2     1       0.4737578754E-03       8    2    1         0.1230280142E-01      0.7932319210E-01
          0                 5           2             8    2     1       0.2129482102E-03       8    2    1         0.5529963529E-02      0.3536198611E-01
          0                 6           1             8    2     1       0.9571735497E-04       8    2    1         0.2485648227E-02      0.1582109344E-01
          0                 7           1             8    2     1       0.4302357719E-04       8    2    1         0.1117265030E-02      0.7082539764E-02
          0                 8           1             8    2     1       0.1933844156E-04       8    2    1         0.5021944119E-03      0.3171003120E-02
          0                 9           1             8    2     1       0.8692316681E-05       8    2    1         0.2257286435E-03      0.1419808806E-02

    ------------------------------------------------
       NWT REQUIRED            9 OUTER ITERATIONS 
       AND A TOTAL OF         14 INNER ITERATIONS.
    ------------------------------------------------

 OUTPUT CONTROL FOR STRESS PERIOD    4   TIME STEP    5
    PRINT BUDGET
    SAVE BUDGET
 UBUDSV SAVING "         STORAGE" ON UNIT102 AT TIME STEP     5, STRESS PERIOD    4
 UBUDSV SAVING "   CONSTANT HEAD" ON UNIT102 AT TIME STEP     5, STRESS PERIOD    4
 UBUDSV SAVING "FLOW RIGHT FACE " ON UNIT102 AT TIME STEP     5, STRESS PERIOD    4
 UBUDSV SAVING "FLOW FRONT FACE " ON UNIT102 AT TIME STEP     5, STRESS PERIOD    4

  HEAD DEP BOUNDS   PERIOD    4   STEP     5
 BOUNDARY      1   LAYER   1   ROW    13   COL     1   RATE   -0.291719    
 BOUNDARY      2   LAYER   1   ROW    14   COL     9   RATE    0.279192    



 STREAM LISTING     PERIOD      4   STEP        5

 LAYER ROW COL. STREAM  RCH.  FLOW INTO     FLOW TO   FLOW OUT OF   OVRLND.     DIRECT     STREAM       STREAM     STREAM     STREAM   STREAMBED  STREAMBED
                SEG.NO.  NO.  STRM. RCH.    AQUIFER    STRM. RCH.    RUNOFF     PRECIP       ET          HEAD       DEPTH      WIDTH   CONDCTNC.   GRADIENT

   1    1    1     1     1    4.2000E+01  3.1070E-01   4.1689E+01  0.000E+00  0.000E+00  0.000E+00  1.09439E+03  1.346E+00  1.589E+01  7.149E-02  1.449E+00
   1    2    2     1     2    4.1689E+01  4.8125E-01   4.1208E+01  0.000E+00  0.000E+00  0.000E+00  1.08940E+03  1.343E+00  1.583E+01  1.108E-01  1.448E+00
   1    3    3     1     3    4.1208E+01  4.1050E-01   4.0798E+01  0.000E+00  0.000E+00  0.000E+00  1.08376E+03  1.340E+00  1.577E+01  9.459E-02  1.447E+00
   1    3    4     1     4    4.0798E+01  3.7807E-01   4.0419E+01  0.000E+00  0.000E+00  0.000E+00  1.07874E+03  1.337E+00  1.571E+01  8.718E-02  1.446E+00
   1    4    5     2     1    3.8419E+01  3.5555E-01   3.8064E+01  0.000E+00  0.000E+00  0.000E+00  1.07349E+03  1.558E+00  1.200E+01  7.800E-02  1.519E+00
   1    5    6     2     2    3.8064E+01  2.7304E-01   3.7791E+01  0.000E+00  0.000E+00  0.000E+00  1.06806E+03  1.551E+00  1.200E+01  6.000E-02  1.517E+00
   1    6    6     2     3    3.7791E+01  2.7264E-01   3.7518E+01  0.000E+00  0.000E+00  0.000E+00  1.06334E+03  1.544E+00  1.200E+01  6.000E-02  1.515E+00
   1    7    6     2     4    3.7518E+01  2.7223E-01   3.7246E+01  0.000E+00  0.000E+00  0.000E+00  1.05861E+03  1.537E+00  1.200E+01  6.000E-02  1.512E+00
   1    8    6     2     5    3.7246E+01  2.7183E-01   3.6974E+01  0.000E+00  0.000E+00  0.000E+00  1.05389E+03  1.531E+00  1.200E+01  6.000E-02  1.510E+00
   1    3    5     3     1    2.0000E+00  2.8252E-01   1.7175E+00  0.000E+00  0.000E+00  0.000E+00  1.07555E+03  1.909E+00  9.636E+00  7.227E-02  1.955E+00
   1    3    6     3     2    1.7175E+00  2.4905E-01   1.4684E+00  0.000E+00  0.000E+00  0.000E+00  1.07264E+03  1.727E+00  8.909E+00  6.682E-02  1.864E+00
   1    3    7     3     3    1.4684E+00  1.9718E-01   1.2712E+00  0.000E+00  0.000E+00  0.000E+00  1.06987E+03  1.555E+00  8.218E+00  5.547E-02  1.777E+00
   1    4    8     3     4    1.2712E+00  2.2567E-01   1.0456E+00  0.000E+00  0.000E+00  0.000E+00  1.06682E+03  1.364E+00  7.455E+00  6.709E-02  1.682E+00
   1    5    8     3     5    1.0456E+00  1.5790E-01   8.8768E-01  0.000E+00  0.000E+00  0.000E+00  1.06362E+03  1.164E+00  6.655E+00  4.991E-02  1.582E+00
   1    6    8     3     6    8.8768E-01  5.5980E-02   8.3170E-01  0.000E+00  0.000E+00  0.000E+00  1.06158E+03  1.036E+00  6.145E+00  1.844E-02  1.518E+00
   1    5   10     4     1    1.0000E+01  9.0919E-02   9.9091E+00  0.000E+00  0.000E+00  0.000E+00  1.07836E+03  6.368E-01  1.000E+01  2.500E-02  1.212E+00
   1    5    9     4     2    9.9091E+00  1.8158E-01   9.7275E+00  0.000E+00  0.000E+00  0.000E+00  1.07154E+03  6.315E-01  1.000E+01  5.000E-02  1.211E+00
   1    6    8     4     3    9.7275E+00  1.2689E-01   9.6006E+00  0.000E+00  0.000E+00  0.000E+00  1.06381E+03  6.256E-01  1.000E+01  3.500E-02  1.209E+00
   1    6    8     5     1    1.0432E+01  2.2686E-01   1.0205E+01  0.000E+00  0.000E+00  0.000E+00  1.05868E+03  6.790E-01  1.542E+01  6.166E-02  1.226E+00
   1    7    7     5     2    1.0205E+01  2.7894E-01   9.9265E+00  0.000E+00  0.000E+00  0.000E+00  1.05417E+03  6.732E-01  1.519E+01  7.594E-02  1.224E+00
   1    8    7     5     3    9.9265E+00  1.9221E-01   9.7343E+00  0.000E+00  0.000E+00  0.000E+00  1.04992E+03  6.676E-01  1.497E+01  5.241E-02  1.223E+00
   1    8    6     5     4    9.7343E+00  1.3577E-01   9.5985E+00  0.000E+00  0.000E+00  0.000E+00  1.04691E+03  6.637E-01  1.482E+01  3.706E-02  1.221E+00
   1    9    6     6     1    4.6573E+01  2.8622E-01   4.6287E+01  0.000E+00  0.000E+00  0.000E+00  1.04450E+03  1.770E+00  1.200E+01  6.000E-02  1.590E+00
   1   10    7     6     2    4.6287E+01  2.8583E-01   4.6001E+01  0.000E+00  0.000E+00  0.000E+00  1.03995E+03  1.764E+00  1.200E+01  6.000E-02  1.588E+00
   1   11    7     6     3    4.6001E+01  2.8543E-01   4.5715E+01  0.000E+00  0.000E+00  0.000E+00  1.03539E+03  1.757E+00  1.200E+01  6.000E-02  1.586E+00
   1   12    7     6     4    4.5715E+01  2.8504E-01   4.5430E+01  0.000E+00  0.000E+00  0.000E+00  1.03084E+03  1.751E+00  1.200E+01  6.000E-02  1.584E+00
   1   13    7     6     5    4.5430E+01  8.8438E-03   4.5421E+01  0.000E+00  0.000E+00  0.000E+00  1.02766E+03  1.747E+00  1.200E+01  2.400E-02  1.228E-01
   1   14    9     7     1    1.5000E+02  1.2393E+00   1.4876E+02  0.000E+00  0.000E+00  0.000E+00  1.03987E+03  2.288E+00  5.530E+01  5.593E-01  7.386E-01
   1   13    8     7     2    1.4876E+02  1.7174E+00   1.4704E+02  0.000E+00  0.000E+00  0.000E+00  1.03478E+03  2.280E+00  5.526E+01  6.148E-01  9.311E-01
   1   13    7     7     3    1.4704E+02  1.3424E+00   1.4570E+02  0.000E+00  0.000E+00  0.000E+00  1.02969E+03  2.272E+00  5.522E+01  5.585E-01  8.012E-01
   1   13    6     8     1    1.9112E+02  8.9491E-01   1.9023E+02  0.000E+00  0.000E+00  0.000E+00  1.02496E+03  3.082E+00  4.469E+01  4.554E-01  6.550E-01
   1   13    5     8     2    1.9023E+02  1.3045E-01   1.9010E+02  0.000E+00  0.000E+00  0.000E+00  1.01870E+03  3.079E+00  4.464E+01  4.549E-01  9.558E-02
   1   13    4     8     3    1.9010E+02 -2.5721E+00   1.9267E+02  0.000E+00  0.000E+00  0.000E+00  1.01246E+03  3.086E+00  4.475E+01  4.560E+00 -1.880E-01
   1   13    3     8     4    1.9267E+02 -3.6662E+00   1.9634E+02  0.000E+00  0.000E+00  0.000E+00  1.00623E+03  3.105E+00  4.502E+01  4.588E+00 -2.664E-01
   1   13    2     8     5    1.9634E+02 -2.5190E+00   1.9885E+02  0.000E+00  0.000E+00  0.000E+00  9.99999E+02  3.124E+00  4.529E+01  4.615E+00 -1.819E-01
   1   13    1     8     6    1.9885E+02 -1.8502E+00   2.0070E+02  0.000E+00  0.000E+00  0.000E+00  9.95011E+02  3.136E+00  4.548E+01  2.781E+00 -2.218E-01
   1    6    8     9     1    0.0000E+00  0.0000E+00   0.0000E+00  0.000E+00  0.000E+00  0.000E+00  1.07850E+03  0.000E+00  4.000E+00  0.000E+00  1.000E+00



 UBDSV3 SAVING "     NETRECHARGE" ON UNIT 100 AT TIME STEP     5, STRESS PERIOD   4
 UBDSV3 SAVING "    NETDISCHARGE" ON UNIT 101 AT TIME STEP     5, STRESS PERIOD   4
 UBDSV3 SAVING "           GW ET" ON UNIT  61 AT TIME STEP     5, STRESS PERIOD   4
 UBDSV3 SAVING "    UZF RECHARGE" ON UNIT  61 AT TIME STEP     5, STRESS PERIOD   4
 UBDSV3 SAVING " SURFACE LEAKAGE" ON UNIT  61 AT TIME STEP     5, STRESS PERIOD   4
 UBDSV3 SAVING "       HORT+DUNN" ON UNIT  61 AT TIME STEP     5, STRESS PERIOD   4
 UBDSV3 SAVING "  STORAGE CHANGE" ON UNIT  61 AT TIME STEP     5, STRESS PERIOD   4


UNSATURATED ZONE PACKAGE VOLUMETRIC BUDGET FOR  TIME STEP     5 STRESS PERIOD    4
  ------------------------------------------------------------------------------



     CUMULATIVE VOLUMES      L**3       RATES FOR THIS TIME STEP      L**3/T
     ------------------                 ------------------------

           IN:                                      IN:
           ---                                      ---
        INFILTRATION =      151807.6534          INFILTRATION =       0.0000E+00

          OUT:                                     OUT:
          ----                                     ----
              UZF ET =     1651251.7460                UZF ET =           0.2900
        UZF RECHARGE =   155799140.6722          UZF RECHARGE =          26.9840

            IN - OUT =  -157298584.7648              IN - OUT =         -27.2740

          STORAGE:                                 STORAGE:
          --------                                 --------
      STORAGE CHANGE =  -157294123.4750        STORAGE CHANGE =         -27.2738

 PERCENT DISCREPANCY IS DIFFERENCE BETWEEN IN-OUT MINUS CHANGE IN STORAGE
 DIVIDED BY THE AVERAGE OF IN AND OUT TIMES 100

 PERCENT DISCREPANCY =          -0.00     PERCENT DISCREPANCY =          -0.00






1
  VOLUMETRIC BUDGET FOR ENTIRE MODEL AT END OF TIME STEP    5, STRESS PERIOD   4
  ------------------------------------------------------------------------------

     CUMULATIVE VOLUMES      L**3       RATES FOR THIS TIME STEP      L**3/T
     ------------------                 ------------------------

           IN:                                      IN:
           ---                                      ---
             STORAGE     =           0.0000               STORAGE     =           0.0000
       CONSTANT HEAD     =           0.0000         CONSTANT HEAD     =           0.0000
               WELLS     =           0.0000                 WELLS     =           0.0000
     HEAD DEP BOUNDS     =     1632058.6250       HEAD DEP BOUNDS     =           0.2792
      STREAM LEAKAGE     =    63011832.0000        STREAM LEAKAGE     =          11.9031
        UZF RECHARGE     =   155799152.0000          UZF RECHARGE     =          26.9840
               GW ET     =           0.0000                 GW ET     =           0.0000
     SURFACE LEAKAGE     =           0.0000       SURFACE LEAKAGE     =           0.0000
    SUPPLEMENTARY WELLS  =           0.0000      SUPPLEMENTARY WELLS  =           0.0000

                TOTAL IN =   220443040.0000                  TOTAL IN =          39.1663

          OUT:                                     OUT:
          ----                                     ----
             STORAGE     =   154752400.0000               STORAGE     =          28.2622
       CONSTANT HEAD     =           0.0000         CONSTANT HEAD     =           0.0000
               WELLS     =           0.0000                 WELLS     =           0.0000
     HEAD DEP BOUNDS     =     1666972.8750       HEAD DEP BOUNDS     =           0.2917
      STREAM LEAKAGE     =    63813060.0000        STREAM LEAKAGE     =          10.6075
        UZF RECHARGE     =           0.0000          UZF RECHARGE     =           0.0000
               GW ET     =      149512.1719                 GW ET     =       3.0357E-10
     SURFACE LEAKAGE     =           0.0000       SURFACE LEAKAGE     =           0.0000
    SUPPLEMENTARY WELLS  =       31277.1836      SUPPLEMENTARY WELLS  =           0.0000

               TOTAL OUT =   220413232.0000                 TOTAL OUT =          39.1615

                IN - OUT =       29808.0000                  IN - OUT =       4.8218E-03

     PERCENT DISCREPANCY =           0.01         PERCENT DISCREPANCY =           0.01






         TIME SUMMARY AT END OF TIME STEP    5 IN STRESS PERIOD    4
                    SECONDS     MINUTES      HOURS       DAYS        YEARS
                    -----------------------------------------------------------
   TIME STEP LENGTH  87600.      1460.0      24.333      1.0139     2.77588E-03
 STRESS PERIOD TIME 4.38000E+05  7300.0      121.67      5.0694     1.38794E-02
         TOTAL TIME 5.78040E+06  96340.      1605.7      66.903     0.18317    
1
 
 SOLVING FOR HEAD 
                                                   Max.-Head-Change                         Max.-Flux-Residual
  Residual-Control   Outer-Iter.   Inner-Iter.     Column Row Layer    Maximum-Head-Change  Column Row Layer    Maximum-Flux-Residual          L2-NORM 
          0                 1           2             2    2     1       0.8680655497E-02       2    2    1         0.4524825467E+00      0.1808190158E+01
          0                 2           2             8    2     1       0.2344435150E-02       2    2    1         0.7861938052E-01      0.4735996626E+00
          0                 3           2             8    2     1       0.1053796463E-02       8    2    1         0.2736555160E-01      0.1818041286E+00
          0                 4           2             8    2     1       0.4736683919E-03       8    2    1         0.1230049466E-01      0.7920066882E-01
          0                 5           2             8    2     1       0.2129076279E-03       8    2    1         0.5528917326E-02      0.3530744360E-01
          0                 6           1             8    2     1       0.9569895105E-04       8    2    1         0.2485173758E-02      0.1579671478E-01
          0                 7           1             8    2     1       0.4301523123E-04       8    2    1         0.1117049860E-02      0.7071639991E-02
          0                 8           1             8    2     1       0.1933465713E-04       8    2    1         0.5020968416E-03      0.3166130307E-02
          0                 9           1             8    2     1       0.8690600669E-05       8    2    1         0.2256844023E-03      0.1417630470E-02

    ------------------------------------------------
       NWT REQUIRED            9 OUTER ITERATIONS 
       AND A TOTAL OF         14 INNER ITERATIONS.
    ------------------------------------------------

 NO OUTPUT CONTROL FOR STRESS PERIOD    4   TIME STEP    6
 
 SOLVING FOR HEAD 
                                                   Max.-Head-Change                         Max.-Flux-Residual
  Residual-Control   Outer-Iter.   Inner-Iter.     Column Row Layer    Maximum-Head-Change  Column Row Layer    Maximum-Flux-Residual          L2-NORM 
          0                 1           2             2    2     1       0.8642224373E-02       2    2    1         0.4504588411E+00      0.1796903316E+01
          0                 2           2             8    2     1       0.2343945397E-02       2    2    1         0.7827336447E-01      0.4726537287E+00
          0                 3           2             8    2     1       0.1053574550E-02       8    2    1         0.2735982657E-01      0.1815170598E+00
          0                 4           2             8    2     1       0.4735678443E-03       8    2    1         0.1229790059E-01      0.7907742990E-01
          0                 5           2             8    2     1       0.2128620719E-03       8    2    1         0.5527741974E-02      0.3525251773E-01
          0                 6           1             8    2     1       0.9567831138E-04       8    2    1         0.2484641234E-02      0.1577216867E-01
          0                 7           1             8    2     1       0.4300588083E-04       8    2    1         0.1116808596E-02      0.7060664295E-02
          0                 8           1             8    2     1       0.1933042125E-04       8    2    1         0.5019875379E-03      0.3161223887E-02
          0                 9           1             8    2     1       0.8688681817E-05       8    2    1         0.2256348802E-03      0.1415435646E-02

    ------------------------------------------------
       NWT REQUIRED            9 OUTER ITERATIONS 
       AND A TOTAL OF         14 INNER ITERATIONS.
    ------------------------------------------------

 NO OUTPUT CONTROL FOR STRESS PERIOD    4   TIME STEP    7
 
 SOLVING FOR HEAD 
                                                   Max.-Head-Change                         Max.-Flux-Residual
  Residual-Control   Outer-Iter.   Inner-Iter.     Column Row Layer    Maximum-Head-Change  Column Row Layer    Maximum-Flux-Residual          L2-NORM 
          0                 1           2             2    2     1       0.8604551885E-02       2    2    1         0.4484751337E+00      0.1786888617E+01
          0                 2           2             8    2     1       0.2343500085E-02       2    2    1         0.7793417380E-01      0.4716470517E+00
          0                 3           2             8    2     1       0.1053372602E-02       8    2    1         0.2735462022E-01      0.1812206130E+00
          0                 4           2             8    2     1       0.4734762659E-03       8    2    1         0.1229553955E-01      0.7895298956E-01
          0                 5           2             8    2     1       0.2128205460E-03       8    2    1         0.5526671312E-02      0.3519729950E-01
          0                 6           1             8    2     1       0.9565948252E-04       8    2    1         0.2484155745E-02      0.1574749675E-01
          0                 7           1             8    2     1       0.4299734379E-04       8    2    1         0.1116588464E-02      0.7049636530E-02
          0                 8           1             8    2     1       0.1932655028E-04       8    2    1         0.5018877278E-03      0.3156293557E-02
          0                 9           1             8    2     1       0.8686926788E-05       8    2    1         0.2255896339E-03      0.1413232170E-02

    ------------------------------------------------
       NWT REQUIRED            9 OUTER ITERATIONS 
       AND A TOTAL OF         14 INNER ITERATIONS.
    ------------------------------------------------

 NO OUTPUT CONTROL FOR STRESS PERIOD    4   TIME STEP    8
 
 SOLVING FOR HEAD 
                                                   Max.-Head-Change                         Max.-Flux-Residual
  Residual-Control   Outer-Iter.   Inner-Iter.     Column Row Layer    Maximum-Head-Change  Column Row Layer    Maximum-Flux-Residual          L2-NORM 
          0                 1           2             2    2     1       0.8567533742E-02       2    2    1         0.4465259763E+00      0.1776876292E+01
          0                 2           2             8    2     1       0.2343000197E-02       2    2    1         0.7760086518E-01      0.4706961799E+00
          0                 3           2             8    2     1       0.1053146174E-02       8    2    1         0.2734877708E-01      0.1809284523E+00
          0                 4           2             8    2     1       0.4733737071E-03       8    2    1         0.1229289287E-01      0.7882715642E-01
          0                 5           2             8    2     1       0.2127740941E-03       8    2    1         0.5525472526E-02      0.3514119973E-01
          0                 6           1             8    2     1       0.9563844418E-04       8    2    1         0.2483612791E-02      0.1572242643E-01
          0                 7           1             8    2     1       0.4298781556E-04       8    2    1         0.1116342556E-02      0.7038428243E-02
          0                 8           1             8    2     1       0.1932223536E-04       8    2    1         0.5017763632E-03      0.3151283790E-02
          0                 9           1             8    2     1       0.8684973171E-05       8    2    1         0.2255392000E-03      0.1410992534E-02

    ------------------------------------------------
       NWT REQUIRED            9 OUTER ITERATIONS 
       AND A TOTAL OF         14 INNER ITERATIONS.
    ------------------------------------------------

 NO OUTPUT CONTROL FOR STRESS PERIOD    4   TIME STEP    9
 
 SOLVING FOR HEAD 
                                                   Max.-Head-Change                         Max.-Flux-Residual
  Residual-Control   Outer-Iter.   Inner-Iter.     Column Row Layer    Maximum-Head-Change  Column Row Layer    Maximum-Flux-Residual          L2-NORM 
          0                 1           2             2    2     1       0.8531241869E-02       2    2    1         0.4446151086E+00      0.1769572426E+01
          0                 2           2             8    2     1       0.2342544495E-02       2    2    1         0.7727409097E-01      0.4697759747E+00
          0                 3           2             8    2     1       0.1052939490E-02       8    2    1         0.2734344914E-01      0.1806258437E+00
          0                 4           2             8    2     1       0.4732799717E-03       8    2    1         0.1229047641E-01      0.7869987260E-01
          0                 5           2             8    2     1       0.2127315852E-03       8    2    1         0.5524376618E-02      0.3508485119E-01
          0                 6           1             8    2     1       0.9561916788E-04       8    2    1         0.2483115812E-02      0.1569727575E-01
          0                 7           1             8    2     1       0.4297907493E-04       8    2    1         0.1116117197E-02      0.7027190013E-02
          0                 8           1             8    2     1       0.1931827260E-04       8    2    1         0.5016741767E-03      0.3146260154E-02
          0                 9           1             8    2     1       0.8683176123E-05       8    2    1         0.2254928658E-03      0.1408747594E-02

    ------------------------------------------------
       NWT REQUIRED            9 OUTER ITERATIONS 
       AND A TOTAL OF         14 INNER ITERATIONS.
    ------------------------------------------------

 OUTPUT CONTROL FOR STRESS PERIOD    4   TIME STEP   10
    PRINT BUDGET
    SAVE BUDGET
 UBUDSV SAVING "         STORAGE" ON UNIT102 AT TIME STEP    10, STRESS PERIOD    4
 UBUDSV SAVING "   CONSTANT HEAD" ON UNIT102 AT TIME STEP    10, STRESS PERIOD    4
 UBUDSV SAVING "FLOW RIGHT FACE " ON UNIT102 AT TIME STEP    10, STRESS PERIOD    4
 UBUDSV SAVING "FLOW FRONT FACE " ON UNIT102 AT TIME STEP    10, STRESS PERIOD    4

  HEAD DEP BOUNDS   PERIOD    4   STEP    10
 BOUNDARY      1   LAYER   1   ROW    13   COL     1   RATE   -0.292402    
 BOUNDARY      2   LAYER   1   ROW    14   COL     9   RATE    0.278770    



 STREAM LISTING     PERIOD      4   STEP       10

 LAYER ROW COL. STREAM  RCH.  FLOW INTO     FLOW TO   FLOW OUT OF   OVRLND.     DIRECT     STREAM       STREAM     STREAM     STREAM   STREAMBED  STREAMBED
                SEG.NO.  NO.  STRM. RCH.    AQUIFER    STRM. RCH.    RUNOFF     PRECIP       ET          HEAD       DEPTH      WIDTH   CONDCTNC.   GRADIENT

   1    1    1     1     1    4.2000E+01  3.1070E-01   4.1689E+01  0.000E+00  0.000E+00  0.000E+00  1.09439E+03  1.346E+00  1.589E+01  7.149E-02  1.449E+00
   1    2    2     1     2    4.1689E+01  4.8125E-01   4.1208E+01  0.000E+00  0.000E+00  0.000E+00  1.08940E+03  1.343E+00  1.583E+01  1.108E-01  1.448E+00
   1    3    3     1     3    4.1208E+01  4.1050E-01   4.0798E+01  0.000E+00  0.000E+00  0.000E+00  1.08376E+03  1.340E+00  1.577E+01  9.459E-02  1.447E+00
   1    3    4     1     4    4.0798E+01  3.7807E-01   4.0419E+01  0.000E+00  0.000E+00  0.000E+00  1.07874E+03  1.337E+00  1.571E+01  8.718E-02  1.446E+00
   1    4    5     2     1    3.8419E+01  3.5555E-01   3.8064E+01  0.000E+00  0.000E+00  0.000E+00  1.07349E+03  1.558E+00  1.200E+01  7.800E-02  1.519E+00
   1    5    6     2     2    3.8064E+01  2.7304E-01   3.7791E+01  0.000E+00  0.000E+00  0.000E+00  1.06806E+03  1.551E+00  1.200E+01  6.000E-02  1.517E+00
   1    6    6     2     3    3.7791E+01  2.7264E-01   3.7518E+01  0.000E+00  0.000E+00  0.000E+00  1.06334E+03  1.544E+00  1.200E+01  6.000E-02  1.515E+00
   1    7    6     2     4    3.7518E+01  2.7223E-01   3.7246E+01  0.000E+00  0.000E+00  0.000E+00  1.05861E+03  1.537E+00  1.200E+01  6.000E-02  1.512E+00
   1    8    6     2     5    3.7246E+01  2.7183E-01   3.6974E+01  0.000E+00  0.000E+00  0.000E+00  1.05389E+03  1.531E+00  1.200E+01  6.000E-02  1.510E+00
   1    3    5     3     1    2.0000E+00  2.8252E-01   1.7175E+00  0.000E+00  0.000E+00  0.000E+00  1.07555E+03  1.909E+00  9.636E+00  7.227E-02  1.955E+00
   1    3    6     3     2    1.7175E+00  2.4905E-01   1.4684E+00  0.000E+00  0.000E+00  0.000E+00  1.07264E+03  1.727E+00  8.909E+00  6.682E-02  1.864E+00
   1    3    7     3     3    1.4684E+00  1.9718E-01   1.2712E+00  0.000E+00  0.000E+00  0.000E+00  1.06987E+03  1.555E+00  8.218E+00  5.547E-02  1.777E+00
   1    4    8     3     4    1.2712E+00  2.2567E-01   1.0456E+00  0.000E+00  0.000E+00  0.000E+00  1.06682E+03  1.364E+00  7.455E+00  6.709E-02  1.682E+00
   1    5    8     3     5    1.0456E+00  1.5790E-01   8.8768E-01  0.000E+00  0.000E+00  0.000E+00  1.06362E+03  1.164E+00  6.655E+00  4.991E-02  1.582E+00
   1    6    8     3     6    8.8768E-01  5.5980E-02   8.3170E-01  0.000E+00  0.000E+00  0.000E+00  1.06158E+03  1.036E+00  6.145E+00  1.844E-02  1.518E+00
   1    5   10     4     1    1.0000E+01  9.0919E-02   9.9091E+00  0.000E+00  0.000E+00  0.000E+00  1.07836E+03  6.368E-01  1.000E+01  2.500E-02  1.212E+00
   1    5    9     4     2    9.9091E+00  1.8158E-01   9.7275E+00  0.000E+00  0.000E+00  0.000E+00  1.07154E+03  6.315E-01  1.000E+01  5.000E-02  1.211E+00
   1    6    8     4     3    9.7275E+00  1.2689E-01   9.6006E+00  0.000E+00  0.000E+00  0.000E+00  1.06381E+03  6.256E-01  1.000E+01  3.500E-02  1.209E+00
   1    6    8     5     1    1.0432E+01  2.2686E-01   1.0205E+01  0.000E+00  0.000E+00  0.000E+00  1.05868E+03  6.790E-01  1.542E+01  6.166E-02  1.226E+00
   1    7    7     5     2    1.0205E+01  2.7894E-01   9.9265E+00  0.000E+00  0.000E+00  0.000E+00  1.05417E+03  6.732E-01  1.519E+01  7.594E-02  1.224E+00
   1    8    7     5     3    9.9265E+00  1.9221E-01   9.7343E+00  0.000E+00  0.000E+00  0.000E+00  1.04992E+03  6.676E-01  1.497E+01  5.241E-02  1.223E+00
   1    8    6     5     4    9.7343E+00  1.3577E-01   9.5985E+00  0.000E+00  0.000E+00  0.000E+00  1.04691E+03  6.637E-01  1.482E+01  3.706E-02  1.221E+00
   1    9    6     6     1    4.6573E+01  2.8622E-01   4.6287E+01  0.000E+00  0.000E+00  0.000E+00  1.04450E+03  1.770E+00  1.200E+01  6.000E-02  1.590E+00
   1   10    7     6     2    4.6287E+01  2.8583E-01   4.6001E+01  0.000E+00  0.000E+00  0.000E+00  1.03995E+03  1.764E+00  1.200E+01  6.000E-02  1.588E+00
   1   11    7     6     3    4.6001E+01  2.8543E-01   4.5715E+01  0.000E+00  0.000E+00  0.000E+00  1.03539E+03  1.757E+00  1.200E+01  6.000E-02  1.586E+00
   1   12    7     6     4    4.5715E+01  2.8504E-01   4.5430E+01  0.000E+00  0.000E+00  0.000E+00  1.03084E+03  1.751E+00  1.200E+01  6.000E-02  1.584E+00
   1   13    7     6     5    4.5430E+01  8.3009E-03   4.5422E+01  0.000E+00  0.000E+00  0.000E+00  1.02766E+03  1.747E+00  1.200E+01  2.400E-02  1.153E-01
   1   14    9     7     1    1.5000E+02  1.2331E+00   1.4877E+02  0.000E+00  0.000E+00  0.000E+00  1.03987E+03  2.288E+00  5.530E+01  5.593E-01  7.349E-01
   1   13    8     7     2    1.4877E+02  1.7075E+00   1.4706E+02  0.000E+00  0.000E+00  0.000E+00  1.03478E+03  2.280E+00  5.526E+01  6.148E-01  9.258E-01
   1   13    7     7     3    1.4706E+02  1.3298E+00   1.4573E+02  0.000E+00  0.000E+00  0.000E+00  1.02969E+03  2.272E+00  5.522E+01  5.585E-01  7.937E-01
   1   13    6     8     1    1.9115E+02  8.8316E-01   1.9027E+02  0.000E+00  0.000E+00  0.000E+00  1.02496E+03  3.082E+00  4.469E+01  4.554E-01  6.464E-01
   1   13    5     8     2    1.9027E+02  1.2076E-01   1.9015E+02  0.000E+00  0.000E+00  0.000E+00  1.01870E+03  3.079E+00  4.465E+01  4.550E-01  8.847E-02
   1   13    4     8     3    1.9015E+02 -2.6656E+00   1.9281E+02  0.000E+00  0.000E+00  0.000E+00  1.01246E+03  3.087E+00  4.476E+01  4.561E+00 -1.948E-01
   1   13    3     8     4    1.9281E+02 -3.7534E+00   1.9657E+02  0.000E+00  0.000E+00  0.000E+00  1.00623E+03  3.106E+00  4.504E+01  4.590E+00 -2.726E-01
   1   13    2     8     5    1.9657E+02 -2.6025E+00   1.9917E+02  0.000E+00  0.000E+00  0.000E+00  1.00000E+03  3.125E+00  4.531E+01  4.618E+00 -1.879E-01
   1   13    1     8     6    1.9917E+02 -1.8959E+00   2.0106E+02  0.000E+00  0.000E+00  0.000E+00  9.95013E+02  3.138E+00  4.551E+01  2.782E+00 -2.271E-01
   1    6    8     9     1    0.0000E+00  0.0000E+00   0.0000E+00  0.000E+00  0.000E+00  0.000E+00  1.07850E+03  0.000E+00  4.000E+00  0.000E+00  1.000E+00



 UBDSV3 SAVING "     NETRECHARGE" ON UNIT 100 AT TIME STEP    10, STRESS PERIOD   4
 UBDSV3 SAVING "    NETDISCHARGE" ON UNIT 101 AT TIME STEP    10, STRESS PERIOD   4
 UBDSV3 SAVING "           GW ET" ON UNIT  61 AT TIME STEP    10, STRESS PERIOD   4
 UBDSV3 SAVING "    UZF RECHARGE" ON UNIT  61 AT TIME STEP    10, STRESS PERIOD   4
 UBDSV3 SAVING " SURFACE LEAKAGE" ON UNIT  61 AT TIME STEP    10, STRESS PERIOD   4
 UBDSV3 SAVING "       HORT+DUNN" ON UNIT  61 AT TIME STEP    10, STRESS PERIOD   4
 UBDSV3 SAVING "  STORAGE CHANGE" ON UNIT  61 AT TIME STEP    10, STRESS PERIOD   4


UNSATURATED ZONE PACKAGE VOLUMETRIC BUDGET FOR  TIME STEP    10 STRESS PERIOD    4
  ------------------------------------------------------------------------------



     CUMULATIVE VOLUMES      L**3       RATES FOR THIS TIME STEP      L**3/T
     ------------------                 ------------------------

           IN:                                      IN:
           ---                                      ---
        INFILTRATION =      151807.6534          INFILTRATION =       0.0000E+00

          OUT:                                     OUT:
          ----                                     ----
              UZF ET =     1778271.7460                UZF ET =           0.2900
        UZF RECHARGE =   167577664.5297          UZF RECHARGE =          26.8237

            IN - OUT =  -169204128.6223              IN - OUT =         -27.1137

          STORAGE:                                 STORAGE:
          --------                                 --------
      STORAGE CHANGE =  -169199597.1726        STORAGE CHANGE =         -27.1136

 PERCENT DISCREPANCY IS DIFFERENCE BETWEEN IN-OUT MINUS CHANGE IN STORAGE
 DIVIDED BY THE AVERAGE OF IN AND OUT TIMES 100

 PERCENT DISCREPANCY =          -0.00     PERCENT DISCREPANCY =          -0.00






1
  VOLUMETRIC BUDGET FOR ENTIRE MODEL AT END OF TIME STEP   10, STRESS PERIOD   4
  ------------------------------------------------------------------------------

     CUMULATIVE VOLUMES      L**3       RATES FOR THIS TIME STEP      L**3/T
     ------------------                 ------------------------

           IN:                                      IN:
           ---                                      ---
             STORAGE     =           0.0000               STORAGE     =           0.0000
       CONSTANT HEAD     =           0.0000         CONSTANT HEAD     =           0.0000
               WELLS     =           0.0000                 WELLS     =           0.0000
     HEAD DEP BOUNDS     =     1754233.6250       HEAD DEP BOUNDS     =           0.2788
      STREAM LEAKAGE     =    68212008.0000        STREAM LEAKAGE     =          11.8525
        UZF RECHARGE     =   167577680.0000          UZF RECHARGE     =          26.8237
               GW ET     =           0.0000                 GW ET     =           0.0000
     SURFACE LEAKAGE     =           0.0000       SURFACE LEAKAGE     =           0.0000
    SUPPLEMENTARY WELLS  =           0.0000      SUPPLEMENTARY WELLS  =           0.0000

                TOTAL IN =   237543920.0000                  TOTAL IN =          38.9550

          OUT:                                     OUT:
          ----                                     ----
             STORAGE     =   166990688.0000               STORAGE     =          27.7404
       CONSTANT HEAD     =           0.0000         CONSTANT HEAD     =           0.0000
               WELLS     =           0.0000                 WELLS     =           0.0000
     HEAD DEP BOUNDS     =     1794931.3750       HEAD DEP BOUNDS     =           0.2924
      STREAM LEAKAGE     =    68545600.0000        STREAM LEAKAGE     =          10.9174
        UZF RECHARGE     =           0.0000          UZF RECHARGE     =           0.0000
               GW ET     =      149512.1719                 GW ET     =       3.0358E-10
     SURFACE LEAKAGE     =           0.0000       SURFACE LEAKAGE     =           0.0000
    SUPPLEMENTARY WELLS  =       31277.1836      SUPPLEMENTARY WELLS  =           0.0000

               TOTAL OUT =   237512016.0000                 TOTAL OUT =          38.9502

                IN - OUT =       31904.0000                  IN - OUT =       4.7684E-03

     PERCENT DISCREPANCY =           0.01         PERCENT DISCREPANCY =           0.01






         TIME SUMMARY AT END OF TIME STEP   10 IN STRESS PERIOD    4
                    SECONDS     MINUTES      HOURS       DAYS        YEARS
                    -----------------------------------------------------------
   TIME STEP LENGTH  87600.      1460.0      24.333      1.0139     2.77588E-03
 STRESS PERIOD TIME 8.76000E+05  14600.      243.33      10.139     2.77588E-02
         TOTAL TIME 6.21840E+06 1.03640E+05  1727.3      71.972     0.19705    
1
 
 SOLVING FOR HEAD 
                                                   Max.-Head-Change                         Max.-Flux-Residual
  Residual-Control   Outer-Iter.   Inner-Iter.     Column Row Layer    Maximum-Head-Change  Column Row Layer    Maximum-Flux-Residual          L2-NORM 
          0                 1           2             2    2     1       0.8495660294E-02       2    2    1         0.4427417046E+00      0.1761440337E+01
          0                 2           2             8    2     1       0.2342034210E-02       2    2    1         0.7695370586E-01      0.4688383590E+00
          0                 3           2             8    2     1       0.1052708380E-02       8    2    1         0.2733748459E-01      0.1803289400E+00
          0                 4           2             8    2     1       0.4731753043E-03       8    2    1         0.1228777505E-01      0.7857269995E-01
          0                 5           2             8    2     1       0.2126841849E-03       8    2    1         0.5523153218E-02      0.3502829807E-01
          0                 6           1             8    2     1       0.9559770210E-04       8    2    1         0.2482561766E-02      0.1567200765E-01
          0                 7           1             8    2     1       0.4296935462E-04       8    2    1         0.1115866299E-02      0.7015895510E-02
          0                 8           1             8    2     1       0.1931387090E-04       8    2    1         0.5015605625E-03      0.3141211677E-02
          0                 9           1             8    2     1       0.8681182988E-05       8    2    1         0.2254414191E-03      0.1406490294E-02

    ------------------------------------------------
       NWT REQUIRED            9 OUTER ITERATIONS 
       AND A TOTAL OF         14 INNER ITERATIONS.
    ------------------------------------------------

 NO OUTPUT CONTROL FOR STRESS PERIOD    4   TIME STEP   11
 
 SOLVING FOR HEAD 
                                                   Max.-Head-Change                         Max.-Flux-Residual
  Residual-Control   Outer-Iter.   Inner-Iter.     Column Row Layer    Maximum-Head-Change  Column Row Layer    Maximum-Flux-Residual          L2-NORM 
          0                 1           2             2    2     1       0.8460685916E-02       2    2    1         0.4409003426E+00      0.1755901564E+01
          0                 2           2             8    2     1       0.2341568235E-02       2    2    1         0.7663878083E-01      0.4680997089E+00
          0                 3           2             8    2     1       0.1052497102E-02       8    2    1         0.2733203685E-01      0.1800431953E+00
          0                 4           2             8    2     1       0.4730795142E-03       8    2    1         0.1228530502E-01      0.7844581233E-01
          0                 5           2             8    2     1       0.2126407577E-03       8    2    1         0.5522033355E-02      0.3497156554E-01
          0                 6           1             8    2     1       0.9557801535E-04       8    2    1         0.2482054078E-02      0.1564664777E-01
          0                 7           1             8    2     1       0.4296043065E-04       8    2    1         0.1115636152E-02      0.7004560957E-02
          0                 8           1             8    2     1       0.1930982585E-04       8    2    1         0.5014562364E-03      0.3136145569E-02
          0                 9           1             8    2     1       0.8679350174E-05       8    2    1         0.2253941329E-03      0.1404226314E-02

    ------------------------------------------------
       NWT REQUIRED            9 OUTER ITERATIONS 
       AND A TOTAL OF         14 INNER ITERATIONS.
    ------------------------------------------------

 NO OUTPUT CONTROL FOR STRESS PERIOD    4   TIME STEP   12
 
 SOLVING FOR HEAD 
                                                   Max.-Head-Change                         Max.-Flux-Residual
  Residual-Control   Outer-Iter.   Inner-Iter.     Column Row Layer    Maximum-Head-Change  Column Row Layer    Maximum-Flux-Residual          L2-NORM 
          0                 1           2             2    2     1       0.8426392195E-02       2    2    1         0.4390948600E+00      0.1749928977E+01
          0                 2           2             8    2     1       0.2341047427E-02       2    2    1         0.7632998036E-01      0.4672133846E+00
          0                 3           2             8    2     1       0.1052261201E-02       8    2    1         0.2732594919E-01      0.1797488595E+00
          0                 4           2             8    2     1       0.4729726671E-03       8    2    1         0.1228254762E-01      0.7831808002E-01
          0                 5           2             8    2     1       0.2125923657E-03       8    2    1         0.5520784453E-02      0.3491459327E-01
          0                 6           1             8    2     1       0.9555609887E-04       8    2    1         0.2481488435E-02      0.1562118472E-01
          0                 7           1             8    2     1       0.4295050525E-04       8    2    1         0.1115379977E-02      0.6993178545E-02
          0                 8           1             8    2     1       0.1930533111E-04       8    2    1         0.5013402209E-03      0.3131060924E-02
          0                 9           1             8    2     1       0.8677314270E-05       8    2    1         0.2253415939E-03      0.1401952603E-02

    ------------------------------------------------
       NWT REQUIRED            9 OUTER ITERATIONS 
       AND A TOTAL OF         14 INNER ITERATIONS.
    ------------------------------------------------

 NO OUTPUT CONTROL FOR STRESS PERIOD    4   TIME STEP   13
 
 SOLVING FOR HEAD 
                                                   Max.-Head-Change                         Max.-Flux-Residual
  Residual-Control   Outer-Iter.   Inner-Iter.     Column Row Layer    Maximum-Head-Change  Column Row Layer    Maximum-Flux-Residual          L2-NORM 
          0                 1           2             2    2     1       0.8392676451E-02       2    2    1         0.4373198978E+00      0.1745170526E+01
          0                 2           2             8    2     1       0.2340570836E-02       2    2    1         0.7602637519E-01      0.4664950741E+00
          0                 3           2             8    2     1       0.1052045116E-02       8    2    1         0.2732037735E-01      0.1794624008E+00
          0                 4           2             8    2     1       0.4728747006E-03       8    2    1         0.1228002139E-01      0.7819056431E-01
          0                 5           2             8    2     1       0.2125479530E-03       8    2    1         0.5519639146E-02      0.3485757217E-01
          0                 6           1             8    2     1       0.9553596619E-04       8    2    1         0.2480969230E-02      0.1559569561E-01
          0                 7           1             8    2     1       0.4294137945E-04       8    2    1         0.1115144618E-02      0.6981787396E-02
          0                 8           1             8    2     1       0.1930119452E-04       8    2    1         0.5012335404E-03      0.3125966916E-02
          0                 9           1             8    2     1       0.8675439938E-05       8    2    1         0.2252932474E-03      0.1399676898E-02

    ------------------------------------------------
       NWT REQUIRED            9 OUTER ITERATIONS 
       AND A TOTAL OF         14 INNER ITERATIONS.
    ------------------------------------------------

 NO OUTPUT CONTROL FOR STRESS PERIOD    4   TIME STEP   14
 
 SOLVING FOR HEAD 
                                                   Max.-Head-Change                         Max.-Flux-Residual
  Residual-Control   Outer-Iter.   Inner-Iter.     Column Row Layer    Maximum-Head-Change  Column Row Layer    Maximum-Flux-Residual          L2-NORM 
          0                 1           2             2    2     1       0.8359700345E-02       2    2    1         0.4355838873E+00      0.1741135699E+01
          0                 2           2             8    2     1       0.2340039419E-02       2    2    1         0.7572942899E-01      0.4657981296E+00
          0                 3           2             8    2     1       0.1051804442E-02       8    2    1         0.2731416582E-01      0.1791762015E+00
          0                 4           2             8    2     1       0.4727657072E-03       8    2    1         0.1227720828E-01      0.7806280118E-01
          0                 5           2             8    2     1       0.2124985958E-03       8    2    1         0.5518365185E-02      0.3480044740E-01
          0                 6           1             8    2     1       0.9551361576E-04       8    2    1         0.2480392320E-02      0.1557015902E-01
          0                 7           1             8    2     1       0.4293125895E-04       8    2    1         0.1114883377E-02      0.6970373384E-02
          0                 8           1             8    2     1       0.1929661223E-04       8    2    1         0.5011152463E-03      0.3120871507E-02
          0                 9           1             8    2     1       0.8673364767E-05       8    2    1         0.2252396814E-03      0.1397404582E-02

    ------------------------------------------------
       NWT REQUIRED            9 OUTER ITERATIONS 
       AND A TOTAL OF         14 INNER ITERATIONS.
    ------------------------------------------------

 OUTPUT CONTROL FOR STRESS PERIOD    4   TIME STEP   15
    PRINT BUDGET
    PRINT HEAD FOR ALL LAYERS
    SAVE HEAD FOR ALL LAYERS
    SAVE BUDGET
 UBUDSV SAVING "         STORAGE" ON UNIT102 AT TIME STEP    15, STRESS PERIOD    4
 UBUDSV SAVING "   CONSTANT HEAD" ON UNIT102 AT TIME STEP    15, STRESS PERIOD    4
 UBUDSV SAVING "FLOW RIGHT FACE " ON UNIT102 AT TIME STEP    15, STRESS PERIOD    4
 UBUDSV SAVING "FLOW FRONT FACE " ON UNIT102 AT TIME STEP    15, STRESS PERIOD    4

  HEAD DEP BOUNDS   PERIOD    4   STEP    15
 BOUNDARY      1   LAYER   1   ROW    13   COL     1   RATE   -0.292928    
 BOUNDARY      2   LAYER   1   ROW    14   COL     9   RATE    0.278358    



 STREAM LISTING     PERIOD      4   STEP       15

 LAYER ROW COL. STREAM  RCH.  FLOW INTO     FLOW TO   FLOW OUT OF   OVRLND.     DIRECT     STREAM       STREAM     STREAM     STREAM   STREAMBED  STREAMBED
                SEG.NO.  NO.  STRM. RCH.    AQUIFER    STRM. RCH.    RUNOFF     PRECIP       ET          HEAD       DEPTH      WIDTH   CONDCTNC.   GRADIENT

   1    1    1     1     1    4.2000E+01  3.1070E-01   4.1689E+01  0.000E+00  0.000E+00  0.000E+00  1.09439E+03  1.346E+00  1.589E+01  7.149E-02  1.449E+00
   1    2    2     1     2    4.1689E+01  4.8125E-01   4.1208E+01  0.000E+00  0.000E+00  0.000E+00  1.08940E+03  1.343E+00  1.583E+01  1.108E-01  1.448E+00
   1    3    3     1     3    4.1208E+01  4.1050E-01   4.0798E+01  0.000E+00  0.000E+00  0.000E+00  1.08376E+03  1.340E+00  1.577E+01  9.459E-02  1.447E+00
   1    3    4     1     4    4.0798E+01  3.7807E-01   4.0419E+01  0.000E+00  0.000E+00  0.000E+00  1.07874E+03  1.337E+00  1.571E+01  8.718E-02  1.446E+00
   1    4    5     2     1    3.8419E+01  3.5555E-01   3.8064E+01  0.000E+00  0.000E+00  0.000E+00  1.07349E+03  1.558E+00  1.200E+01  7.800E-02  1.519E+00
   1    5    6     2     2    3.8064E+01  2.7304E-01   3.7791E+01  0.000E+00  0.000E+00  0.000E+00  1.06806E+03  1.551E+00  1.200E+01  6.000E-02  1.517E+00
   1    6    6     2     3    3.7791E+01  2.7264E-01   3.7518E+01  0.000E+00  0.000E+00  0.000E+00  1.06334E+03  1.544E+00  1.200E+01  6.000E-02  1.515E+00
   1    7    6     2     4    3.7518E+01  2.7223E-01   3.7246E+01  0.000E+00  0.000E+00  0.000E+00  1.05861E+03  1.537E+00  1.200E+01  6.000E-02  1.512E+00
   1    8    6     2     5    3.7246E+01  2.7183E-01   3.6974E+01  0.000E+00  0.000E+00  0.000E+00  1.05389E+03  1.531E+00  1.200E+01  6.000E-02  1.510E+00
   1    3    5     3     1    2.0000E+00  2.8252E-01   1.7175E+00  0.000E+00  0.000E+00  0.000E+00  1.07555E+03  1.909E+00  9.636E+00  7.227E-02  1.955E+00
   1    3    6     3     2    1.7175E+00  2.4905E-01   1.4684E+00  0.000E+00  0.000E+00  0.000E+00  1.07264E+03  1.727E+00  8.909E+00  6.682E-02  1.864E+00
   1    3    7     3     3    1.4684E+00  1.9718E-01   1.2712E+00  0.000E+00  0.000E+00  0.000E+00  1.06987E+03  1.555E+00  8.218E+00  5.547E-02  1.777E+00
   1    4    8     3     4    1.2712E+00  2.2567E-01   1.0456E+00  0.000E+00  0.000E+00  0.000E+00  1.06682E+03  1.364E+00  7.455E+00  6.709E-02  1.682E+00
   1    5    8     3     5    1.0456E+00  1.5790E-01   8.8768E-01  0.000E+00  0.000E+00  0.000E+00  1.06362E+03  1.164E+00  6.655E+00  4.991E-02  1.582E+00
   1    6    8     3     6    8.8768E-01  5.5980E-02   8.3170E-01  0.000E+00  0.000E+00  0.000E+00  1.06158E+03  1.036E+00  6.145E+00  1.844E-02  1.518E+00
   1    5   10     4     1    1.0000E+01  9.0919E-02   9.9091E+00  0.000E+00  0.000E+00  0.000E+00  1.07836E+03  6.368E-01  1.000E+01  2.500E-02  1.212E+00
   1    5    9     4     2    9.9091E+00  1.8158E-01   9.7275E+00  0.000E+00  0.000E+00  0.000E+00  1.07154E+03  6.315E-01  1.000E+01  5.000E-02  1.211E+00
   1    6    8     4     3    9.7275E+00  1.2689E-01   9.6006E+00  0.000E+00  0.000E+00  0.000E+00  1.06381E+03  6.256E-01  1.000E+01  3.500E-02  1.209E+00
   1    6    8     5     1    1.0432E+01  2.2686E-01   1.0205E+01  0.000E+00  0.000E+00  0.000E+00  1.05868E+03  6.790E-01  1.542E+01  6.166E-02  1.226E+00
   1    7    7     5     2    1.0205E+01  2.7894E-01   9.9265E+00  0.000E+00  0.000E+00  0.000E+00  1.05417E+03  6.732E-01  1.519E+01  7.594E-02  1.224E+00
   1    8    7     5     3    9.9265E+00  1.9221E-01   9.7343E+00  0.000E+00  0.000E+00  0.000E+00  1.04992E+03  6.676E-01  1.497E+01  5.241E-02  1.223E+00
   1    8    6     5     4    9.7343E+00  1.3577E-01   9.5985E+00  0.000E+00  0.000E+00  0.000E+00  1.04691E+03  6.637E-01  1.482E+01  3.706E-02  1.221E+00
   1    9    6     6     1    4.6573E+01  2.8622E-01   4.6287E+01  0.000E+00  0.000E+00  0.000E+00  1.04450E+03  1.770E+00  1.200E+01  6.000E-02  1.590E+00
   1   10    7     6     2    4.6287E+01  2.8583E-01   4.6001E+01  0.000E+00  0.000E+00  0.000E+00  1.03995E+03  1.764E+00  1.200E+01  6.000E-02  1.588E+00
   1   11    7     6     3    4.6001E+01  2.8543E-01   4.5715E+01  0.000E+00  0.000E+00  0.000E+00  1.03539E+03  1.757E+00  1.200E+01  6.000E-02  1.586E+00
   1   12    7     6     4    4.5715E+01  2.8504E-01   4.5430E+01  0.000E+00  0.000E+00  0.000E+00  1.03084E+03  1.751E+00  1.200E+01  6.000E-02  1.584E+00
   1   13    7     6     5    4.5430E+01  7.7865E-03   4.5422E+01  0.000E+00  0.000E+00  0.000E+00  1.02766E+03  1.747E+00  1.200E+01  2.400E-02  1.081E-01
   1   14    9     7     1    1.5000E+02  1.2271E+00   1.4877E+02  0.000E+00  0.000E+00  0.000E+00  1.03987E+03  2.288E+00  5.530E+01  5.593E-01  7.313E-01
   1   13    8     7     2    1.4877E+02  1.6979E+00   1.4707E+02  0.000E+00  0.000E+00  0.000E+00  1.03478E+03  2.280E+00  5.526E+01  6.148E-01  9.205E-01
   1   13    7     7     3    1.4707E+02  1.3179E+00   1.4576E+02  0.000E+00  0.000E+00  0.000E+00  1.02969E+03  2.272E+00  5.522E+01  5.585E-01  7.865E-01
   1   13    6     8     1    1.9118E+02  8.7304E-01   1.9031E+02  0.000E+00  0.000E+00  0.000E+00  1.02496E+03  3.082E+00  4.470E+01  4.555E-01  6.389E-01
   1   13    5     8     2    1.9031E+02  1.1192E-01   1.9019E+02  0.000E+00  0.000E+00  0.000E+00  1.01870E+03  3.079E+00  4.465E+01  4.550E-01  8.199E-02
   1   13    4     8     3    1.9019E+02 -2.7282E+00   1.9292E+02  0.000E+00  0.000E+00  0.000E+00  1.01246E+03  3.087E+00  4.477E+01  4.562E+00 -1.993E-01
   1   13    3     8     4    1.9292E+02 -3.8115E+00   1.9673E+02  0.000E+00  0.000E+00  0.000E+00  1.00623E+03  3.107E+00  4.505E+01  4.591E+00 -2.767E-01
   1   13    2     8     5    1.9673E+02 -2.6518E+00   1.9939E+02  0.000E+00  0.000E+00  0.000E+00  1.00000E+03  3.126E+00  4.533E+01  4.619E+00 -1.914E-01
   1   13    1     8     6    1.9939E+02 -1.9314E+00   2.0132E+02  0.000E+00  0.000E+00  0.000E+00  9.95015E+02  3.140E+00  4.553E+01  2.784E+00 -2.313E-01
   1    6    8     9     1    0.0000E+00  0.0000E+00   0.0000E+00  0.000E+00  0.000E+00  0.000E+00  1.07850E+03  0.000E+00  4.000E+00  0.000E+00  1.000E+00



 UBDSV3 SAVING "     NETRECHARGE" ON UNIT 100 AT TIME STEP    15, STRESS PERIOD   4
 UBDSV3 SAVING "    NETDISCHARGE" ON UNIT 101 AT TIME STEP    15, STRESS PERIOD   4
 UBDSV3 SAVING "           GW ET" ON UNIT  61 AT TIME STEP    15, STRESS PERIOD   4
 UBDSV3 SAVING "    UZF RECHARGE" ON UNIT  61 AT TIME STEP    15, STRESS PERIOD   4
 UBDSV3 SAVING " SURFACE LEAKAGE" ON UNIT  61 AT TIME STEP    15, STRESS PERIOD   4
 UBDSV3 SAVING "       HORT+DUNN" ON UNIT  61 AT TIME STEP    15, STRESS PERIOD   4
 UBDSV3 SAVING "  STORAGE CHANGE" ON UNIT  61 AT TIME STEP    15, STRESS PERIOD   4


UNSATURATED ZONE PACKAGE VOLUMETRIC BUDGET FOR  TIME STEP    15 STRESS PERIOD    4
  ------------------------------------------------------------------------------



     CUMULATIVE VOLUMES      L**3       RATES FOR THIS TIME STEP      L**3/T
     ------------------                 ------------------------

           IN:                                      IN:
           ---                                      ---
        INFILTRATION =      151807.6534          INFILTRATION =       0.0000E+00

          OUT:                                     OUT:
          ----                                     ----
              UZF ET =     1905291.7460                UZF ET =           0.2900
        UZF RECHARGE =   179284572.1552          UZF RECHARGE =          26.6789

            IN - OUT =  -181038056.2478              IN - OUT =         -26.9689

          STORAGE:                                 STORAGE:
          --------                                 --------
      STORAGE CHANGE =  -181033468.4702        STORAGE CHANGE =         -26.9688

 PERCENT DISCREPANCY IS DIFFERENCE BETWEEN IN-OUT MINUS CHANGE IN STORAGE
 DIVIDED BY THE AVERAGE OF IN AND OUT TIMES 100

 PERCENT DISCREPANCY =          -0.00     PERCENT DISCREPANCY =          -0.00






1
              HEAD IN LAYER   1 AT END OF TIME STEP    15 IN STRESS PERIOD    4
  -----------------------------------------------------------------------------

           1       2       3       4       5       6       7       8       9      10
 ...................................................................................
   1  1033.68 1032.46 6999.00 6999.00 6999.00 6999.00 6999.00 6999.00 6999.00 6999.00
   2  1032.99 1031.57 1030.76 6999.00 6999.00 1032.15 1032.30 1032.29 6999.00 6999.00
   3  6999.00 1030.75 1030.32 1030.06 1030.61 1031.28 1031.86 1031.85 6999.00 6999.00
   4  1030.08 1030.05 1029.74 1029.35 1029.41 1029.44 1030.10 1031.23 1031.00 6999.00
   5  1029.63 1029.28 1028.98 1028.65 1028.71 1028.92 1029.05 1029.52 1030.15 1030.64
   6  1029.05 1028.51 1028.19 1027.90 1027.99 1028.32 1028.57 1029.10 1029.83 1030.84
   7  1028.53 1027.52 1027.22 1026.99 1027.14 1027.55 1027.95 1028.45 1029.33 6999.00
   8  6999.00 1026.07 1025.96 1025.85 1026.06 1026.56 1026.98 1027.96 1028.65 6999.00
   9  6999.00 1023.90 1024.10 1024.29 1024.66 1025.32 1025.83 1026.89 1028.05 6999.00
  10  6999.00 1020.91 1021.54 1022.34 1023.11 1024.12 1025.06 1026.40 1028.09 1028.70
  11  6999.00 1016.23 1017.47 1019.83 1021.45 1023.19 1024.76 1026.81 1029.08 6999.00
  12  1002.54 1008.51 1012.42 1016.39 1019.68 1022.68 1025.20 1028.79 1031.89 6999.00
  13   995.71 1000.58 1007.06 1013.06 1018.46 1023.04 1027.33 1032.02 1034.89 6999.00
  14  6999.00 1006.42 1009.43 1014.07 1018.81 1023.20 1028.12 1033.56 1037.67 6999.00
  15  6999.00 6999.00 1013.11 1015.82 1019.27 1022.27 6999.00 6999.00 6999.00 6999.00

 HEAD WILL BE SAVED ON UNIT   62 AT END OF TIME STEP   15, STRESS PERIOD    4
1
  VOLUMETRIC BUDGET FOR ENTIRE MODEL AT END OF TIME STEP   15, STRESS PERIOD   4
  ------------------------------------------------------------------------------

     CUMULATIVE VOLUMES      L**3       RATES FOR THIS TIME STEP      L**3/T
     ------------------                 ------------------------

           IN:                                      IN:
           ---                                      ---
             STORAGE     =           0.0000               STORAGE     =           0.0000
       CONSTANT HEAD     =           0.0000         CONSTANT HEAD     =           0.0000
               WELLS     =           0.0000                 WELLS     =           0.0000
     HEAD DEP BOUNDS     =     1876226.5000       HEAD DEP BOUNDS     =           0.2784
      STREAM LEAKAGE     =    73390944.0000        STREAM LEAKAGE     =          11.8055
        UZF RECHARGE     =   179284576.0000          UZF RECHARGE     =          26.6789
               GW ET     =           0.0000                 GW ET     =           0.0000
     SURFACE LEAKAGE     =           0.0000       SURFACE LEAKAGE     =           0.0000
    SUPPLEMENTARY WELLS  =           0.0000      SUPPLEMENTARY WELLS  =           0.0000

                TOTAL IN =   254551744.0000                  TOTAL IN =          38.7628

          OUT:                                     OUT:
          ----                                     ----
             STORAGE     =   179029776.0000               STORAGE     =          27.3422
       CONSTANT HEAD     =           0.0000         CONSTANT HEAD     =           0.0000
               WELLS     =           0.0000                 WELLS     =           0.0000
     HEAD DEP BOUNDS     =     1923146.6250       HEAD DEP BOUNDS     =           0.2929
      STREAM LEAKAGE     =    73384072.0000        STREAM LEAKAGE     =          11.1229
        UZF RECHARGE     =           0.0000          UZF RECHARGE     =           0.0000
               GW ET     =      149512.1719                 GW ET     =       3.0357E-10
     SURFACE LEAKAGE     =           0.0000       SURFACE LEAKAGE     =           0.0000
    SUPPLEMENTARY WELLS  =       31277.1836      SUPPLEMENTARY WELLS  =           0.0000

               TOTAL OUT =   254517792.0000                 TOTAL OUT =          38.7581

                IN - OUT =       33952.0000                  IN - OUT =       4.7264E-03

     PERCENT DISCREPANCY =           0.01         PERCENT DISCREPANCY =           0.01






         TIME SUMMARY AT END OF TIME STEP   15 IN STRESS PERIOD    4
                    SECONDS     MINUTES      HOURS       DAYS        YEARS
                    -----------------------------------------------------------
   TIME STEP LENGTH  87600.      1460.0      24.333      1.0139     2.77588E-03
 STRESS PERIOD TIME 1.31400E+06  21900.      365.00      15.208     4.16381E-02
         TOTAL TIME 6.65640E+06 1.10940E+05  1849.0      77.042     0.21093    
1
 
 SOLVING FOR HEAD 
                                                   Max.-Head-Change                         Max.-Flux-Residual
  Residual-Control   Outer-Iter.   Inner-Iter.     Column Row Layer    Maximum-Head-Change  Column Row Layer    Maximum-Flux-Residual          L2-NORM 
          0                 1           2             2    2     1       0.8327273569E-02       2    2    1         0.4338768848E+00      0.1737295012E+01
          0                 2           2             8    2     1       0.2339552236E-02       2    2    1         0.7543742056E-01      0.4650449279E+00
          0                 3           2             8    2     1       0.1051583593E-02       8    2    1         0.2730847034E-01      0.1788821956E+00
          0                 4           2             8    2     1       0.4726655982E-03       8    2    1         0.1227462644E-01      0.7793452314E-01
          0                 5           2             8    2     1       0.2124532199E-03       8    2    1         0.5517194872E-02      0.3474336582E-01
          0                 6           1             8    2     1       0.9549304988E-04       8    2    1         0.2479861868E-02      0.1554466780E-01
          0                 7           1             8    2     1       0.4292193806E-04       8    2    1         0.1114642962E-02      0.6958983058E-02
          0                 8           1             8    2     1       0.1929238886E-04       8    2    1         0.5010062968E-03      0.3115775851E-02
          0                 9           1             8    2     1       0.8671450917E-05       8    2    1         0.2251903038E-03      0.1395121810E-02

    ------------------------------------------------
       NWT REQUIRED            9 OUTER ITERATIONS 
       AND A TOTAL OF         14 INNER ITERATIONS.
    ------------------------------------------------

 NO OUTPUT CONTROL FOR STRESS PERIOD    4   TIME STEP   16
 
 SOLVING FOR HEAD 
                                                   Max.-Head-Change                         Max.-Flux-Residual
  Residual-Control   Outer-Iter.   Inner-Iter.     Column Row Layer    Maximum-Head-Change  Column Row Layer    Maximum-Flux-Residual          L2-NORM 
          0                 1           2             2    2     1       0.8295383023E-02       2    2    1         0.4321981789E+00      0.1732778073E+01
          0                 2           2             8    2     1       0.2339010228E-02       2    2    1         0.7515023406E-01      0.4642532972E+00
          0                 3           2             8    2     1       0.1051338158E-02       8    2    1         0.2730213519E-01      0.1785883479E+00
          0                 4           2             8    2     1       0.4725544646E-03       8    2    1         0.1227175775E-01      0.7780618435E-01
          0                 5           2             8    2     1       0.2124029008E-03       8    2    1         0.5515895932E-02      0.3468615513E-01
          0                 6           1             8    2     1       0.9547026702E-04       8    2    1         0.2479273734E-02      0.1551910833E-01
          0                 7           1             8    2     1       0.4291162374E-04       8    2    1         0.1114376684E-02      0.6947559509E-02
          0                 8           1             8    2     1       0.1928771904E-04       8    2    1         0.5008857412E-03      0.3110669828E-02
          0                 9           1             8    2     1       0.8669337479E-05       8    2    1         0.2251357321E-03      0.1392840603E-02

    ------------------------------------------------
       NWT REQUIRED            9 OUTER ITERATIONS 
       AND A TOTAL OF         14 INNER ITERATIONS.
    ------------------------------------------------

 NO OUTPUT CONTROL FOR STRESS PERIOD    4   TIME STEP   17
 
 SOLVING FOR HEAD 
                                                   Max.-Head-Change                         Max.-Flux-Residual
  Residual-Control   Outer-Iter.   Inner-Iter.     Column Row Layer    Maximum-Head-Change  Column Row Layer    Maximum-Flux-Residual          L2-NORM 
          0                 1           2             2    2     1       0.8264191411E-02       2    2    1         0.4305562958E+00      0.1729644713E+01
          0                 2           2             8    2     1       0.2338462874E-02       2    2    1         0.7486933862E-01      0.4635862159E+00
          0                 3           2             8    2     1       0.1051090268E-02       8    2    1         0.2729573737E-01      0.1783030447E+00
          0                 4           2             8    2     1       0.4724422038E-03       8    2    1         0.1226886028E-01      0.7767828087E-01
          0                 5           2             8    2     1       0.2123520645E-03       8    2    1         0.5514583783E-02      0.3462893183E-01
          0                 6           1             8    2     1       0.9544724755E-04       8    2    1         0.2478679547E-02      0.1549352918E-01
          0                 7           1             8    2     1       0.4290120086E-04       8    2    1         0.1114107629E-02      0.6936128268E-02
          0                 8           1             8    2     1       0.1928299969E-04       8    2    1         0.5007639142E-03      0.3105561763E-02
          0                 9           1             8    2     1       0.8667200530E-05       8    2    1         0.2250805706E-03      0.1390558616E-02

    ------------------------------------------------
       NWT REQUIRED            9 OUTER ITERATIONS 
       AND A TOTAL OF         14 INNER ITERATIONS.
    ------------------------------------------------

 NO OUTPUT CONTROL FOR STRESS PERIOD    4   TIME STEP   18
 
 SOLVING FOR HEAD 
                                                   Max.-Head-Change                         Max.-Flux-Residual
  Residual-Control   Outer-Iter.   Inner-Iter.     Column Row Layer    Maximum-Head-Change  Column Row Layer    Maximum-Flux-Residual          L2-NORM 
          0                 1           2             2    2     1       0.8233509361E-02       2    2    1         0.4289413016E+00      0.1726730047E+01
          0                 2           2             8    2     1       0.2337959827E-02       2    2    1         0.7459302539E-01      0.4629288342E+00
          0                 3           2             8    2     1       0.1050862289E-02       8    2    1         0.2728985672E-01      0.1780190698E+00
          0                 4           2             8    2     1       0.4723388912E-03       8    2    1         0.1226619522E-01      0.7755082736E-01
          0                 5           2             8    2     1       0.2123052497E-03       8    2    1         0.5513376085E-02      0.3457190839E-01
          0                 6           1             8    2     1       0.9542603563E-04       8    2    1         0.2478132299E-02      0.1546803931E-01
          0                 7           1             8    2     1       0.4289158984E-04       8    2    1         0.1113859664E-02      0.6924737370E-02
          0                 8           1             8    2     1       0.1927864551E-04       8    2    1         0.5006515685E-03      0.3100470154E-02
          0                 9           1             8    2     1       0.8665227904E-05       8    2    1         0.2250296717E-03      0.1388282517E-02

    ------------------------------------------------
       NWT REQUIRED            9 OUTER ITERATIONS 
       AND A TOTAL OF         14 INNER ITERATIONS.
    ------------------------------------------------

 NO OUTPUT CONTROL FOR STRESS PERIOD    4   TIME STEP   19
 
 SOLVING FOR HEAD 
                                                   Max.-Head-Change                         Max.-Flux-Residual
  Residual-Control   Outer-Iter.   Inner-Iter.     Column Row Layer    Maximum-Head-Change  Column Row Layer    Maximum-Flux-Residual          L2-NORM 
          0                 1           2             2    2     1       0.8203324727E-02       2    2    1         0.4273525749E+00      0.1722491287E+01
          0                 2           2             8    2     1       0.2337401760E-02       2    2    1         0.7432118318E-01      0.4620485147E+00
          0                 3           2             8    2     1       0.1050609588E-02       8    2    1         0.2728333388E-01      0.1777140628E+00
          0                 4           2             8    2     1       0.4722244704E-03       8    2    1         0.1226324161E-01      0.7742137982E-01
          0                 5           2             8    2     1       0.2122534437E-03       8    2    1         0.5512038725E-02      0.3451452690E-01
          0                 6           1             8    2     1       0.9540258047E-04       8    2    1         0.2477526790E-02      0.1544242481E-01
          0                 7           1             8    2     1       0.4288097163E-04       8    2    1         0.1113585532E-02      0.6913291434E-02
          0                 8           1             8    2     1       0.1927383862E-04       8    2    1         0.5005274620E-03      0.3095356154E-02
          0                 9           1             8    2     1       0.8663051938E-05       8    2    1         0.2249734897E-03      0.1385996941E-02

    ------------------------------------------------
       NWT REQUIRED            9 OUTER ITERATIONS 
       AND A TOTAL OF         14 INNER ITERATIONS.
    ------------------------------------------------

 NO OUTPUT CONTROL FOR STRESS PERIOD    4   TIME STEP   20
 
 SOLVING FOR HEAD 
                                                   Max.-Head-Change                         Max.-Flux-Residual
  Residual-Control   Outer-Iter.   Inner-Iter.     Column Row Layer    Maximum-Head-Change  Column Row Layer    Maximum-Flux-Residual          L2-NORM 
          0                 1           2             2    2     1       0.8173801155E-02       2    2    1         0.4257986534E+00      0.1719334253E+01
          0                 2           2             8    2     1       0.2336838634E-02       2    2    1         0.7405529337E-01      0.4613461300E+00
          0                 3           2             8    2     1       0.1050354666E-02       8    2    1         0.2727675224E-01      0.1774261210E+00
          0                 4           2             8    2     1       0.4721090751E-03       8    2    1         0.1226026219E-01      0.7729332848E-01
          0                 5           2             8    2     1       0.2122012100E-03       8    2    1         0.5510690043E-02      0.3445728522E-01
          0                 6           1             8    2     1       0.9537893847E-04       8    2    1         0.2476916321E-02      0.1541684192E-01
          0                 7           1             8    2     1       0.4287027088E-04       8    2    1         0.1113309215E-02      0.6901859327E-02
          0                 8           1             8    2     1       0.1926899547E-04       8    2    1         0.5004024030E-03      0.3090247770E-02
          0                 9           1             8    2     1       0.8660860465E-05       8    2    1         0.2249168968E-03      0.1383720554E-02

    ------------------------------------------------
       NWT REQUIRED            9 OUTER ITERATIONS 
       AND A TOTAL OF         14 INNER ITERATIONS.
    ------------------------------------------------

 NO OUTPUT CONTROL FOR STRESS PERIOD    4   TIME STEP   21
 
 SOLVING FOR HEAD 
                                                   Max.-Head-Change                         Max.-Flux-Residual
  Residual-Control   Outer-Iter.   Inner-Iter.     Column Row Layer    Maximum-Head-Change  Column Row Layer    Maximum-Flux-Residual          L2-NORM 
          0                 1           2             2    2     1       0.8144750161E-02       2    2    1         0.4242696870E+00      0.1716513366E+01
          0                 2           2             8    2     1       0.2336320805E-02       2    2    1         0.7379365142E-01      0.4606841196E+00
          0                 3           2             8    2     1       0.1050120885E-02       8    2    1         0.2727070185E-01      0.1771412866E+00
          0                 4           2             8    2     1       0.4720036699E-03       8    2    1         0.1225753131E-01      0.7716552683E-01
          0                 5           2             8    2     1       0.2121537479E-03       8    2    1         0.5509459064E-02      0.3440011877E-01
          0                 6           1             8    2     1       0.9535759449E-04       8    2    1         0.2476362158E-02      0.1539130346E-01
          0                 7           1             8    2     1       0.4286068512E-04       8    2    1         0.1113060068E-02      0.6890451296E-02
          0                 8           1             8    2     1       0.1926469606E-04       8    2    1         0.5002905296E-03      0.3085152606E-02
          0                 9           1             8    2     1       0.8658934110E-05       8    2    1         0.2248667253E-03      0.1381441293E-02

    ------------------------------------------------
       NWT REQUIRED            9 OUTER ITERATIONS 
       AND A TOTAL OF         14 INNER ITERATIONS.
    ------------------------------------------------

 NO OUTPUT CONTROL FOR STRESS PERIOD    4   TIME STEP   22
 
 SOLVING FOR HEAD 
                                                   Max.-Head-Change                         Max.-Flux-Residual
  Residual-Control   Outer-Iter.   Inner-Iter.     Column Row Layer    Maximum-Head-Change  Column Row Layer    Maximum-Flux-Residual          L2-NORM 
          0                 1           2             2    2     1       0.8116248142E-02       2    2    1         0.4227696492E+00      0.1714305030E+01
          0                 2           2             8    2     1       0.2335750276E-02       2    2    1         0.7353695014E-01      0.4600404147E+00
          0                 3           2             8    2     1       0.1049862890E-02       8    2    1         0.2726403500E-01      0.1768535236E+00
          0                 4           2             8    2     1       0.4718870071E-03       8    2    1         0.1225451656E-01      0.7703767318E-01
          0                 5           2             8    2     1       0.2121009955E-03       8    2    1         0.5508095829E-02      0.3434310201E-01
          0                 6           1             8    2     1       0.9533374190E-04       8    2    1         0.2475745738E-02      0.1536583661E-01
          0                 7           1             8    2     1       0.4284989983E-04       8    2    1         0.1112781344E-02      0.6879072073E-02
          0                 8           1             8    2     1       0.1925981990E-04       8    2    1         0.5001645098E-03      0.3080067260E-02
          0                 9           1             8    2     1       0.8656729381E-05       8    2    1         0.2248097451E-03      0.1379169409E-02

    ------------------------------------------------
       NWT REQUIRED            9 OUTER ITERATIONS 
       AND A TOTAL OF         14 INNER ITERATIONS.
    ------------------------------------------------

 NO OUTPUT CONTROL FOR STRESS PERIOD    4   TIME STEP   23
 
 SOLVING FOR HEAD 
                                                   Max.-Head-Change                         Max.-Flux-Residual
  Residual-Control   Outer-Iter.   Inner-Iter.     Column Row Layer    Maximum-Head-Change  Column Row Layer    Maximum-Flux-Residual          L2-NORM 
          0                 1           2             2    2     1       0.8088195348E-02       2    2    1         0.4212933561E+00      0.1710670075E+01
          0                 2           2             8    2     1       0.2335176271E-02       2    2    1         0.7328428449E-01      0.4592176565E+00
          0                 3           2             8    2     1       0.1049603511E-02       8    2    1         0.2725732844E-01      0.1765579803E+00
          0                 4           2             8    2     1       0.4717698008E-03       8    2    1         0.1225148603E-01      0.7690928951E-01
          0                 5           2             8    2     1       0.2120480338E-03       8    2    1         0.5506726417E-02      0.3428592191E-01
          0                 6           1             8    2     1       0.9530981028E-04       8    2    1         0.2475126946E-02      0.1534029416E-01
          0                 7           1             8    2     1       0.4283908653E-04       8    2    1         0.1112501738E-02      0.6867659173E-02
          0                 8           1             8    2     1       0.1925493348E-04       8    2    1         0.5000381640E-03      0.3074967115E-02
          0                 9           1             8    2     1       0.8654521901E-05       8    2    1         0.2247526585E-03      0.1376887215E-02

    ------------------------------------------------
       NWT REQUIRED            9 OUTER ITERATIONS 
       AND A TOTAL OF         14 INNER ITERATIONS.
    ------------------------------------------------

 NO OUTPUT CONTROL FOR STRESS PERIOD    4   TIME STEP   24
 
 SOLVING FOR HEAD 
                                                   Max.-Head-Change                         Max.-Flux-Residual
  Residual-Control   Outer-Iter.   Inner-Iter.     Column Row Layer    Maximum-Head-Change  Column Row Layer    Maximum-Flux-Residual          L2-NORM 
          0                 1           2             2    2     1       0.8060756707E-02       2    2    1         0.4198493685E+00      0.1708338592E+01
          0                 2           2             8    2     1       0.2334598644E-02       2    2    1         0.7303715183E-01      0.4585850779E+00
          0                 3           2             8    2     1       0.1049342467E-02       8    2    1         0.2725057943E-01      0.1762761192E+00
          0                 4           2             8    2     1       0.4716518299E-03       8    2    1         0.1224843599E-01      0.7678226606E-01
          0                 5           2             8    2     1       0.2119947211E-03       8    2    1         0.5505348045E-02      0.3422906081E-01
          0                 6           1             8    2     1       0.9528571833E-04       8    2    1         0.2474504045E-02      0.1531487834E-01
          0                 7           1             8    2     1       0.4282819870E-04       8    2    1         0.1112220242E-02      0.6856301598E-02
          0                 8           1             8    2     1       0.1925001355E-04       8    2    1         0.4999109612E-03      0.3069892360E-02
          0                 9           1             8    2     1       0.8652298914E-05       8    2    1         0.2246951790E-03      0.1374619429E-02

    ------------------------------------------------
       NWT REQUIRED            9 OUTER ITERATIONS 
       AND A TOTAL OF         14 INNER ITERATIONS.
    ------------------------------------------------

 NO OUTPUT CONTROL FOR STRESS PERIOD    4   TIME STEP   25
 
 SOLVING FOR HEAD 
                                                   Max.-Head-Change                         Max.-Flux-Residual
  Residual-Control   Outer-Iter.   Inner-Iter.     Column Row Layer    Maximum-Head-Change  Column Row Layer    Maximum-Flux-Residual          L2-NORM 
          0                 1           2             2    2     1       0.8033744501E-02       2    2    1         0.4184279241E+00      0.1706192909E+01
          0                 2           2             8    2     1       0.2334066963E-02       2    2    1         0.7279384980E-01      0.4579711634E+00
          0                 3           2             8    2     1       0.1049102042E-02       8    2    1         0.2724436656E-01      0.1759950373E+00
          0                 4           2             8    2     1       0.4715431124E-03       8    2    1         0.1224562656E-01      0.7665530984E-01
          0                 5           2             8    2     1       0.2119455615E-03       8    2    1         0.5504077664E-02      0.3417222058E-01
          0                 6           1             8    2     1       0.9526348971E-04       8    2    1         0.2473929607E-02      0.1528947177E-01
          0                 7           1             8    2     1       0.4281814823E-04       8    2    1         0.1111960500E-02      0.6844948626E-02
          0                 8           1             8    2     1       0.1924546903E-04       8    2    1         0.4997935139E-03      0.3064819487E-02
          0                 9           1             8    2     1       0.8650243752E-05       8    2    1         0.2246420743E-03      0.1372352637E-02

    ------------------------------------------------
       NWT REQUIRED            9 OUTER ITERATIONS 
       AND A TOTAL OF         14 INNER ITERATIONS.
    ------------------------------------------------

 NO OUTPUT CONTROL FOR STRESS PERIOD    4   TIME STEP   26
 
 SOLVING FOR HEAD 
                                                   Max.-Head-Change                         Max.-Flux-Residual
  Residual-Control   Outer-Iter.   Inner-Iter.     Column Row Layer    Maximum-Head-Change  Column Row Layer    Maximum-Flux-Residual          L2-NORM 
          0                 1           2             2    2     1       0.8007148407E-02       2    2    1         0.4170284368E+00      0.1704402139E+01
          0                 2           2             8    2     1       0.2333482024E-02       2    2    1         0.7255428970E-01      0.4573687345E+00
          0                 3           2             8    2     1       0.1048837734E-02       8    2    1         0.2723753230E-01      0.1757164719E+00
          0                 4           2             8    2     1       0.4714236854E-03       8    2    1         0.1224253847E-01      0.7652943694E-01
          0                 5           2             8    2     1       0.2118915991E-03       8    2    1         0.5502682316E-02      0.3411586182E-01
          0                 6           1             8    2     1       0.9523910764E-04       8    2    1         0.2473299133E-02      0.1526428170E-01
          0                 7           1             8    2     1       0.4280713184E-04       8    2    1         0.1111675633E-02      0.6833691769E-02
          0                 8           1             8    2     1       0.1924049157E-04       8    2    1         0.4996648006E-03      0.3059789890E-02
          0                 9           1             8    2     1       0.8647994753E-05       8    2    1         0.2245839186E-03      0.1370113150E-02

    ------------------------------------------------
       NWT REQUIRED            9 OUTER ITERATIONS 
       AND A TOTAL OF         14 INNER ITERATIONS.
    ------------------------------------------------

 NO OUTPUT CONTROL FOR STRESS PERIOD    4   TIME STEP   27
 
 SOLVING FOR HEAD 
                                                   Max.-Head-Change                         Max.-Flux-Residual
  Residual-Control   Outer-Iter.   Inner-Iter.     Column Row Layer    Maximum-Head-Change  Column Row Layer    Maximum-Flux-Residual          L2-NORM 
          0                 1           2             2    2     1       0.7981134534E-02       2    2    1         0.4156595893E+00      0.1702646574E+01
          0                 2           2             8    2     1       0.2332893562E-02       2    2    1         0.7231997351E-01      0.4567686296E+00
          0                 3           2             8    2     1       0.1048571839E-02       8    2    1         0.2723065690E-01      0.1754389211E+00
          0                 4           2             8    2     1       0.4713035420E-03       8    2    1         0.1223943183E-01      0.7640400725E-01
          0                 5           2             8    2     1       0.2118373140E-03       8    2    1         0.5501278608E-02      0.3405969910E-01
          0                 6           1             8    2     1       0.9521458025E-04       8    2    1         0.2472664887E-02      0.1523917847E-01
          0                 7           1             8    2     1       0.4279604942E-04       8    2    1         0.1111389060E-02      0.6822473691E-02
          0                 8           1             8    2     1       0.1923548460E-04       8    2    1         0.4995353237E-03      0.3054778120E-02
          0                 9           1             8    2     1       0.8645732499E-05       8    2    1         0.2245254178E-03      0.1367867757E-02

    ------------------------------------------------
       NWT REQUIRED            9 OUTER ITERATIONS 
       AND A TOTAL OF         14 INNER ITERATIONS.
    ------------------------------------------------

 NO OUTPUT CONTROL FOR STRESS PERIOD    4   TIME STEP   28
 
 SOLVING FOR HEAD 
                                                   Max.-Head-Change                         Max.-Flux-Residual
  Residual-Control   Outer-Iter.   Inner-Iter.     Column Row Layer    Maximum-Head-Change  Column Row Layer    Maximum-Flux-Residual          L2-NORM 
          0                 1           2             2    2     1       0.8065476814E-02       2    2    1         0.4200649340E+00      0.1710267222E+01
          0                 2           2             8    2     1       0.2332301354E-02       2    2    1         0.7308295006E-01      0.4569553807E+00
          0                 3           2             8    2     1       0.1048304203E-02       8    2    1         0.2722373749E-01      0.1752281261E+00
          0                 4           2             8    2     1       0.4711825923E-03       8    2    1         0.1223630476E-01      0.7628699126E-01
          0                 5           2             8    2     1       0.2117826554E-03       8    2    1         0.5499865429E-02      0.3400584156E-01
          0                 6           1             8    2     1       0.9518987978E-04       8    2    1         0.2472026258E-02      0.1521499821E-01
          0                 7           1             8    2     1       0.4278488747E-04       8    2    1         0.1111100463E-02      0.6811659248E-02
          0                 8           1             8    2     1       0.1923044086E-04       8    2    1         0.4994049107E-03      0.3049941491E-02
          0                 9           1             8    2     1       0.8643453237E-05       8    2    1         0.2244664873E-03      0.1365704231E-02

    ------------------------------------------------
       NWT REQUIRED            9 OUTER ITERATIONS 
       AND A TOTAL OF         14 INNER ITERATIONS.
    ------------------------------------------------

 NO OUTPUT CONTROL FOR STRESS PERIOD    4   TIME STEP   29
 
 SOLVING FOR HEAD 
                                                   Max.-Head-Change                         Max.-Flux-Residual
  Residual-Control   Outer-Iter.   Inner-Iter.     Column Row Layer    Maximum-Head-Change  Column Row Layer    Maximum-Flux-Residual          L2-NORM 
          0                 1           2             4   13     1       0.1409103572E-01       4   13    1         0.8100012552E+00      0.2374573945E+01
          0                 2           2             8    2     1       0.2331705638E-02       2    2    1         0.1031372974E+00      0.4925336946E+00
          0                 3           2             8    2     1       0.1048035041E-02       8    2    1         0.2721677739E-01      0.1775135428E+00
          0                 4           2             8    2     1       0.4710609793E-03       8    2    1         0.1223316000E-01      0.7643440984E-01
          0                 5           2             8    2     1       0.2117277090E-03       8    2    1         0.5498444558E-02      0.3401711176E-01
          0                 6           1             8    2     1       0.9516505451E-04       8    2    1         0.2471384288E-02      0.1521634605E-01
          0                 7           1             8    2     1       0.4277367149E-04       8    2    1         0.1110810418E-02      0.6811923132E-02
          0                 8           1             8    2     1       0.1922537361E-04       8    2    1         0.4992738680E-03      0.3049996045E-02
          0                 9           1             8    2     1       0.8641163970E-05       8    2    1         0.2244072820E-03      0.1365705879E-02

    ------------------------------------------------
       NWT REQUIRED            9 OUTER ITERATIONS 
       AND A TOTAL OF         14 INNER ITERATIONS.
    ------------------------------------------------

 NO OUTPUT CONTROL FOR STRESS PERIOD    4   TIME STEP   30



 STREAM LISTING     PERIOD      4   STEP       30

 LAYER ROW COL. STREAM  RCH.  FLOW INTO     FLOW TO   FLOW OUT OF   OVRLND.     DIRECT     STREAM       STREAM     STREAM     STREAM   STREAMBED  STREAMBED
                SEG.NO.  NO.  STRM. RCH.    AQUIFER    STRM. RCH.    RUNOFF     PRECIP       ET          HEAD       DEPTH      WIDTH   CONDCTNC.   GRADIENT

   1    1    1     1     1    7.7000E+01  4.2703E-01   7.6573E+01  0.000E+00  0.000E+00  0.000E+00  1.09476E+03  1.708E+00  2.016E+01  9.070E-02  1.569E+00
   1    2    2     1     2    7.6573E+01  6.6237E-01   7.5911E+01  0.000E+00  0.000E+00  0.000E+00  1.08976E+03  1.706E+00  2.011E+01  1.408E-01  1.569E+00
   1    3    3     1     3    7.5911E+01  5.6590E-01   7.5345E+01  0.000E+00  0.000E+00  0.000E+00  1.08412E+03  1.703E+00  2.006E+01  1.203E-01  1.568E+00
   1    3    4     1     4    7.5345E+01  5.2193E-01   7.4823E+01  0.000E+00  0.000E+00  0.000E+00  1.07911E+03  1.700E+00  2.001E+01  1.110E-01  1.567E+00
   1    4    5     2     1    7.2823E+01  4.1259E-01   7.2410E+01  0.000E+00  0.000E+00  0.000E+00  1.07422E+03  2.290E+00  1.200E+01  7.800E-02  1.763E+00
   1    5    6     2     2    7.2410E+01  3.1696E-01   7.2093E+01  0.000E+00  0.000E+00  0.000E+00  1.06879E+03  2.283E+00  1.200E+01  6.000E-02  1.761E+00
   1    6    6     2     3    7.2093E+01  3.1660E-01   7.1777E+01  0.000E+00  0.000E+00  0.000E+00  1.06407E+03  2.277E+00  1.200E+01  6.000E-02  1.759E+00
   1    7    6     2     4    7.1777E+01  3.1624E-01   7.1460E+01  0.000E+00  0.000E+00  0.000E+00  1.05935E+03  2.271E+00  1.200E+01  6.000E-02  1.757E+00
   1    8    6     2     5    7.1460E+01  3.1588E-01   7.1144E+01  0.000E+00  0.000E+00  0.000E+00  1.05462E+03  2.265E+00  1.200E+01  6.000E-02  1.755E+00
   1    3    5     3     1    2.0000E+00  2.8252E-01   1.7175E+00  0.000E+00  0.000E+00  0.000E+00  1.07555E+03  1.909E+00  9.636E+00  7.227E-02  1.955E+00
   1    3    6     3     2    1.7175E+00  2.4905E-01   1.4684E+00  0.000E+00  0.000E+00  0.000E+00  1.07264E+03  1.727E+00  8.909E+00  6.682E-02  1.864E+00
   1    3    7     3     3    1.4684E+00  1.9718E-01   1.2712E+00  0.000E+00  0.000E+00  0.000E+00  1.06987E+03  1.555E+00  8.218E+00  5.547E-02  1.777E+00
   1    4    8     3     4    1.2712E+00  2.2567E-01   1.0456E+00  0.000E+00  0.000E+00  0.000E+00  1.06682E+03  1.364E+00  7.455E+00  6.709E-02  1.682E+00
   1    5    8     3     5    1.0456E+00  1.5790E-01   8.8768E-01  0.000E+00  0.000E+00  0.000E+00  1.06362E+03  1.164E+00  6.655E+00  4.991E-02  1.582E+00
   1    6    8     3     6    8.8768E-01  5.5980E-02   8.3170E-01  0.000E+00  0.000E+00  0.000E+00  1.06158E+03  1.036E+00  6.145E+00  1.844E-02  1.518E+00
   1    5   10     4     1    1.0000E+01  9.0919E-02   9.9091E+00  0.000E+00  0.000E+00  0.000E+00  1.07836E+03  6.368E-01  1.000E+01  2.500E-02  1.212E+00
   1    5    9     4     2    9.9091E+00  1.8158E-01   9.7275E+00  0.000E+00  0.000E+00  0.000E+00  1.07154E+03  6.315E-01  1.000E+01  5.000E-02  1.211E+00
   1    6    8     4     3    9.7275E+00  1.2689E-01   9.6006E+00  0.000E+00  0.000E+00  0.000E+00  1.06381E+03  6.256E-01  1.000E+01  3.500E-02  1.209E+00
   1    6    8     5     1    1.0432E+01  2.2686E-01   1.0205E+01  0.000E+00  0.000E+00  0.000E+00  1.05868E+03  6.790E-01  1.542E+01  6.166E-02  1.226E+00
   1    7    7     5     2    1.0205E+01  2.7894E-01   9.9265E+00  0.000E+00  0.000E+00  0.000E+00  1.05417E+03  6.732E-01  1.519E+01  7.594E-02  1.224E+00
   1    8    7     5     3    9.9265E+00  1.9221E-01   9.7343E+00  0.000E+00  0.000E+00  0.000E+00  1.04992E+03  6.676E-01  1.497E+01  5.241E-02  1.223E+00
   1    8    6     5     4    9.7343E+00  1.3577E-01   9.5985E+00  0.000E+00  0.000E+00  0.000E+00  1.04691E+03  6.637E-01  1.482E+01  3.706E-02  1.221E+00
   1    9    6     6     1    8.0743E+01  3.2786E-01   8.0415E+01  0.000E+00  0.000E+00  0.000E+00  1.04519E+03  2.464E+00  1.200E+01  6.000E-02  1.821E+00
   1   10    7     6     2    8.0415E+01  3.2750E-01   8.0088E+01  0.000E+00  0.000E+00  0.000E+00  1.04064E+03  2.458E+00  1.200E+01  6.000E-02  1.819E+00
   1   11    7     6     3    8.0088E+01  3.2714E-01   7.9761E+01  0.000E+00  0.000E+00  0.000E+00  1.03609E+03  2.452E+00  1.200E+01  6.000E-02  1.817E+00
   1   12    7     6     4    7.9761E+01  3.2678E-01   7.9434E+01  0.000E+00  0.000E+00  0.000E+00  1.03154E+03  2.446E+00  1.200E+01  6.000E-02  1.815E+00
   1   13    7     6     5    7.9434E+01  2.3218E-02   7.9411E+01  0.000E+00  0.000E+00  0.000E+00  1.02835E+03  2.443E+00  1.200E+01  2.400E-02  3.225E-01
   1   14    9     7     1    1.5000E+02  1.2098E+00   1.4879E+02  0.000E+00  0.000E+00  0.000E+00  1.03987E+03  2.288E+00  5.530E+01  5.593E-01  7.210E-01
   1   13    8     7     2    1.4879E+02  1.6708E+00   1.4712E+02  0.000E+00  0.000E+00  0.000E+00  1.03478E+03  2.280E+00  5.526E+01  6.148E-01  9.058E-01
   1   13    7     7     3    1.4712E+02  1.2886E+00   1.4583E+02  0.000E+00  0.000E+00  0.000E+00  1.02969E+03  2.273E+00  5.523E+01  5.586E-01  7.690E-01
   1   13    6     8     1    2.2524E+02  9.9399E-01   2.2425E+02  0.000E+00  0.000E+00  0.000E+00  1.02515E+03  3.278E+00  4.753E+01  4.844E-01  6.841E-01
   1   13    5     8     2    2.2425E+02  1.8753E-01   2.2406E+02  0.000E+00  0.000E+00  0.000E+00  1.01890E+03  3.275E+00  4.748E+01  4.839E-01  1.292E-01
   1   13    4     8     3    2.2406E+02 -2.1481E+00   2.2621E+02  0.000E+00  0.000E+00  0.000E+00  1.01266E+03  3.280E+00  4.756E+01  4.847E+00 -1.477E-01
   1   13    3     8     4    2.2621E+02 -3.2903E+00   2.2950E+02  0.000E+00  0.000E+00  0.000E+00  1.00642E+03  3.295E+00  4.778E+01  4.869E+00 -2.253E-01
   1   13    2     8     5    2.2950E+02 -2.0571E+00   2.3156E+02  0.000E+00  0.000E+00  0.000E+00  1.00018E+03  3.309E+00  4.799E+01  4.890E+00 -1.402E-01
   1   13    1     8     6    2.3156E+02 -1.6092E+00   2.3316E+02  0.000E+00  0.000E+00  0.000E+00  9.95194E+02  3.319E+00  4.813E+01  2.943E+00 -1.823E-01
   1    6    8     9     1    0.0000E+00  0.0000E+00   0.0000E+00  0.000E+00  0.000E+00  0.000E+00  1.07850E+03  0.000E+00  4.000E+00  0.000E+00  1.000E+00





UNSATURATED ZONE PACKAGE VOLUMETRIC BUDGET FOR  TIME STEP    30 STRESS PERIOD    4
  ------------------------------------------------------------------------------



     CUMULATIVE VOLUMES      L**3       RATES FOR THIS TIME STEP      L**3/T
     ------------------                 ------------------------

           IN:                                      IN:
           ---                                      ---
        INFILTRATION =      151807.6534          INFILTRATION =       0.0000E+00

          OUT:                                     OUT:
          ----                                     ----
              UZF ET =     2286350.0414                UZF ET =           0.2900
        UZF RECHARGE =   214138979.2601          UZF RECHARGE =          27.1723

            IN - OUT =  -216273521.6481              IN - OUT =         -27.4623

          STORAGE:                                 STORAGE:
          --------                                 --------
      STORAGE CHANGE =  -216268794.9799        STORAGE CHANGE =         -27.4619

 PERCENT DISCREPANCY IS DIFFERENCE BETWEEN IN-OUT MINUS CHANGE IN STORAGE
 DIVIDED BY THE AVERAGE OF IN AND OUT TIMES 100

 PERCENT DISCREPANCY =          -0.00     PERCENT DISCREPANCY =          -0.00






1
  VOLUMETRIC BUDGET FOR ENTIRE MODEL AT END OF TIME STEP   30, STRESS PERIOD   4
  ------------------------------------------------------------------------------

     CUMULATIVE VOLUMES      L**3       RATES FOR THIS TIME STEP      L**3/T
     ------------------                 ------------------------

           IN:                                      IN:
           ---                                      ---
             STORAGE     =           0.0000               STORAGE     =           0.0000
       CONSTANT HEAD     =           0.0000         CONSTANT HEAD     =           0.0000
               WELLS     =           0.0000                 WELLS     =           0.0000
     HEAD DEP BOUNDS     =     2241154.5000       HEAD DEP BOUNDS     =           0.2772
      STREAM LEAKAGE     =    88928232.0000        STREAM LEAKAGE     =          12.9401
        UZF RECHARGE     =   214139024.0000          UZF RECHARGE     =          27.1723
               GW ET     =           0.0000                 GW ET     =           0.0000
     SURFACE LEAKAGE     =           0.0000       SURFACE LEAKAGE     =           0.0000
    SUPPLEMENTARY WELLS  =           0.0000      SUPPLEMENTARY WELLS  =           0.0000

                TOTAL IN =   305308416.0000                  TOTAL IN =          40.3897

          OUT:                                     OUT:
          ----                                     ----
             STORAGE     =   214731776.0000               STORAGE     =          30.9862
       CONSTANT HEAD     =           0.0000         CONSTANT HEAD     =           0.0000
               WELLS     =           0.0000                 WELLS     =           0.0000
     HEAD DEP BOUNDS     =     2308820.7500       HEAD DEP BOUNDS     =           0.2942
      STREAM LEAKAGE     =    88046888.0000        STREAM LEAKAGE     =           9.1047
        UZF RECHARGE     =           0.0000          UZF RECHARGE     =           0.0000
               GW ET     =      149513.8750                 GW ET     =       3.0356E-10
     SURFACE LEAKAGE     =           0.0000       SURFACE LEAKAGE     =           0.0000
    SUPPLEMENTARY WELLS  =       31277.1836      SUPPLEMENTARY WELLS  =           0.0000

               TOTAL OUT =   305268256.0000                 TOTAL OUT =          40.3850

                IN - OUT =       40160.0000                  IN - OUT =       4.6234E-03

     PERCENT DISCREPANCY =           0.01         PERCENT DISCREPANCY =           0.01






         TIME SUMMARY AT END OF TIME STEP   30 IN STRESS PERIOD    4
                    SECONDS     MINUTES      HOURS       DAYS        YEARS
                    -----------------------------------------------------------
   TIME STEP LENGTH  87600.      1460.0      24.333      1.0139     2.77588E-03
 STRESS PERIOD TIME 2.62800E+06  43800.      730.00      30.417     8.32763E-02
         TOTAL TIME 7.97040E+06 1.32840E+05  2214.0      92.250     0.25257    
1
1
                            STRESS PERIOD NO.    5, LENGTH =   2628000.    
                            -----------------------------------------------

                              NUMBER OF TIME STEPS =    30

                               MULTIPLIER FOR DELT =     1.000

                            INITIAL TIME STEP SIZE =   87600.00    

 WELL NO.  LAYER   ROW   COL   STRESS RATE         
 --------------------------------------------------
      1      1      6      4       0.000    
      2      1      6      7       0.000    
      3      1      7      4       0.000    
      4      1      7      5       0.000    
      5      1      8      4       0.000    
      6      1      8      5       0.000    
      7      1      9      4       0.000    
      8      1      9      5       0.000    
      9      1     10      4       0.000    
     10      1     10      5       0.000    

     10 WELLS

 REUSING NON-PARAMETER GHB CELLS FROM LAST STRESS PERIOD

      2 GHB CELLS

 REUSING STREAM SEGMENT DATA FROM LAST STRESS PERIOD



            AREAL INFILTRATION RATE
 READING ON UNIT   19 WITH FORMAT: (10F4.0)            

            1           2           3           4           5           6           7           8           9          10
 ........................................................................................................................
   1    0.000       0.000       0.000       0.000       0.000       0.000       0.000       0.000       0.000       0.000    
   2    0.000       0.000       0.000       0.000       0.000       0.000       0.000       0.000       0.000       0.000    
   3    0.000       0.000       0.000       0.000       0.000       0.000       0.000       0.000       0.000       0.000    
   4    0.000       0.000       0.000       0.000       0.000       0.000       0.000       0.000       0.000       0.000    
   5    0.000       0.000       0.000       0.000       0.000       0.000       0.000       0.000       0.000       0.000    
   6    0.000       0.000       0.000       0.000       0.000       0.000       0.000       0.000       0.000       0.000    
   7    0.000       0.000       0.000       0.000       0.000       0.000       0.000       0.000       0.000       0.000    
   8    0.000       0.000       0.000       0.000       0.000       0.000       0.000       0.000       0.000       0.000    
   9    0.000       0.000       0.000       0.000       0.000       0.000       0.000       0.000       0.000       0.000    
  10    0.000       0.000       0.000       0.000       0.000       0.000       0.000       0.000       0.000       0.000    
  11    0.000       0.000       0.000       0.000       0.000       0.000       0.000       0.000       0.000       0.000    
  12    0.000       0.000       0.000       0.000       0.000       0.000       0.000       0.000       0.000       0.000    
  13    0.000       0.000       0.000       0.000       0.000       0.000       0.000       0.000       0.000       0.000    
  14    0.000       0.000       0.000       0.000       0.000       0.000       0.000       0.000       0.000       0.000    
  15    0.000       0.000       0.000       0.000       0.000       0.000       0.000       0.000       0.000       0.000    

                  ET RATE =  5.000000E-09

 USING ET EXTINCTION DEPTH FROM PREVIOUS STRESS PERIOD. CURRENT PERIOD IS:       5

 USING EXTINCTION WATER CONTENT FROM PREVIOUS STRESS PERIOD. CURRENT PERIOD IS:       5

 PROCESSING AGO STRESS PERIOD DATA

 READING AGO STRESS PERIOD DATA

 READING IRRIGATION STREAM

 READING IRRIGATION WELL

 READING SUPPLEMENTAL WEL

 END PROCESSING AGO STRESS PERIOD DATA OPTIONS
 
 SOLVING FOR HEAD 
                                                   Max.-Head-Change                         Max.-Flux-Residual
  Residual-Control   Outer-Iter.   Inner-Iter.     Column Row Layer    Maximum-Head-Change  Column Row Layer    Maximum-Flux-Residual          L2-NORM 
          0                 1           2             4   13     1       0.1260445007E-01       4   13    1         0.7236963869E+00      0.2299080033E+01
          0                 2           2             8    2     1       0.2331155512E-02       2    2    1         0.1026027783E+00      0.4901771322E+00
          0                 3           2             8    2     1       0.1047786227E-02       8    2    1         0.2721034874E-01      0.1773590419E+00
          0                 4           2             8    2     1       0.4709484481E-03       8    2    1         0.1223025244E-01      0.7639801667E-01
          0                 5           2             8    2     1       0.2116768159E-03       8    2    1         0.5497129560E-02      0.3400163707E-01
          0                 6           1             8    2     1       0.9514203829E-04       8    2    1         0.2470789576E-02      0.1520930422E-01
          0                 7           1             8    2     1       0.4276326337E-04       8    2    1         0.1110541469E-02      0.6808705447E-02
          0                 8           1             8    2     1       0.1922066677E-04       8    2    1         0.4991522410E-03      0.3048526273E-02
          0                 9           1             8    2     1       0.8639036026E-05       8    2    1         0.2243522819E-03      0.1365035590E-02

    ------------------------------------------------
       NWT REQUIRED            9 OUTER ITERATIONS 
       AND A TOTAL OF         14 INNER ITERATIONS.
    ------------------------------------------------

 NO OUTPUT CONTROL FOR STRESS PERIOD    5   TIME STEP    1
 
 SOLVING FOR HEAD 
                                                   Max.-Head-Change                         Max.-Flux-Residual
  Residual-Control   Outer-Iter.   Inner-Iter.     Column Row Layer    Maximum-Head-Change  Column Row Layer    Maximum-Flux-Residual          L2-NORM 
          0                 1           2             2    2     1       0.1127336585E-01       4   13    1         0.6462102107E+00      0.2232816434E+01
          0                 2           2             8    2     1       0.2330552122E-02       2    2    1         0.1020778969E+00      0.4872422752E+00
          0                 3           2             8    2     1       0.1047513614E-02       8    2    1         0.2720329906E-01      0.1771683484E+00
          0                 4           2             8    2     1       0.4708252824E-03       8    2    1         0.1222706737E-01      0.7635404394E-01
          0                 5           2             8    2     1       0.2116211710E-03       8    2    1         0.5495690567E-02      0.3398330458E-01
          0                 6           1             8    2     1       0.9511689963E-04       8    2    1         0.2470139463E-02      0.1520101493E-01
          0                 7           1             8    2     1       0.4275190607E-04       8    2    1         0.1110247758E-02      0.6804933986E-02
          0                 8           1             8    2     1       0.1921553599E-04       8    2    1         0.4990195530E-03      0.3046812365E-02
          0                 9           1             8    2     1       0.8636717996E-05       8    2    1         0.2242923392E-03      0.1364256003E-02

    ------------------------------------------------
       NWT REQUIRED            9 OUTER ITERATIONS 
       AND A TOTAL OF         14 INNER ITERATIONS.
    ------------------------------------------------

 NO OUTPUT CONTROL FOR STRESS PERIOD    5   TIME STEP    2
 
 SOLVING FOR HEAD 
                                                   Max.-Head-Change                         Max.-Flux-Residual
  Residual-Control   Outer-Iter.   Inner-Iter.     Column Row Layer    Maximum-Head-Change  Column Row Layer    Maximum-Flux-Residual          L2-NORM 
          0                 1           2             2    2     1       0.1121621439E-01       2    2    1         0.5848521251E+00      0.2177802951E+01
          0                 2           2             8    2     1       0.2329944985E-02       2    2    1         0.1015632227E+00      0.4849824674E+00
          0                 3           2             8    2     1       0.1047239261E-02       8    2    1         0.2719620537E-01      0.1769884920E+00
          0                 4           2             8    2     1       0.4707013104E-03       8    2    1         0.1222386189E-01      0.7630549758E-01
          0                 5           2             8    2     1       0.2115651534E-03       8    2    1         0.5494242109E-02      0.3396256838E-01
          0                 6           1             8    2     1       0.9509158739E-04       8    2    1         0.2469484957E-02      0.1519165091E-01
          0                 7           1             8    2     1       0.4274046925E-04       8    2    1         0.1109952025E-02      0.6800683758E-02
          0                 8           1             8    2     1       0.1921036819E-04       8    2    1         0.4988859267E-03      0.3044881752E-02
          0                 9           1             8    2     1       0.8634382960E-05       8    2    1         0.2242319643E-03      0.1363381238E-02

    ------------------------------------------------
       NWT REQUIRED            9 OUTER ITERATIONS 
       AND A TOTAL OF         14 INNER ITERATIONS.
    ------------------------------------------------

 NO OUTPUT CONTROL FOR STRESS PERIOD    5   TIME STEP    3
 
 SOLVING FOR HEAD 
                                                   Max.-Head-Change                         Max.-Flux-Residual
  Residual-Control   Outer-Iter.   Inner-Iter.     Column Row Layer    Maximum-Head-Change  Column Row Layer    Maximum-Flux-Residual          L2-NORM 
          0                 1           2             2    2     1       0.1116008450E-01       2    2    1         0.5818976575E+00      0.2131571041E+01
          0                 2           2             8    2     1       0.2329334131E-02       2    2    1         0.1010577342E+00      0.4829699715E+00
          0                 3           2             8    2     1       0.1046963237E-02       8    2    1         0.2718906829E-01      0.1767923579E+00
          0                 4           2             8    2     1       0.4705765883E-03       8    2    1         0.1222063691E-01      0.7625155078E-01
          0                 5           2             8    2     1       0.2115087984E-03       8    2    1         0.5492784898E-02      0.3393974499E-01
          0                 6           1             8    2     1       0.9506612459E-04       8    2    1         0.2468826534E-02      0.1518137714E-01
          0                 7           1             8    2     1       0.4272896464E-04       8    2    1         0.1109654530E-02      0.6796031521E-02
          0                 8           1             8    2     1       0.1920517064E-04       8    2    1         0.4987515148E-03      0.3042775247E-02
          0                 9           1             8    2     1       0.8632034667E-05       8    2    1         0.2241712323E-03      0.1362427786E-02

    ------------------------------------------------
       NWT REQUIRED            9 OUTER ITERATIONS 
       AND A TOTAL OF         14 INNER ITERATIONS.
    ------------------------------------------------

 NO OUTPUT CONTROL FOR STRESS PERIOD    5   TIME STEP    4
 
 SOLVING FOR HEAD 
                                                   Max.-Head-Change                         Max.-Flux-Residual
  Residual-Control   Outer-Iter.   Inner-Iter.     Column Row Layer    Maximum-Head-Change  Column Row Layer    Maximum-Flux-Residual          L2-NORM 
          0                 1           2             2    2     1       0.1110504035E-01       2    2    1         0.5790004152E+00      0.2091521561E+01
          0                 2           2             8    2     1       0.2328719439E-02       2    2    1         0.1005620158E+00      0.4813544027E+00
          0                 3           2             8    2     1       0.1046685458E-02       8    2    1         0.2718188626E-01      0.1766082134E+00
          0                 4           2             8    2     1       0.4704510625E-03       8    2    1         0.1221739136E-01      0.7619378318E-01
          0                 5           2             8    2     1       0.2114520762E-03       8    2    1         0.5491318275E-02      0.3391473358E-01
          0                 6           1             8    2     1       0.9504049396E-04       8    2    1         0.2468163801E-02      0.1517011531E-01
          0                 7           1             8    2     1       0.4271738300E-04       8    2    1         0.1109355060E-02      0.6790939550E-02
          0                 8           1             8    2     1       0.1919993731E-04       8    2    1         0.4986161991E-03      0.3040472894E-02
          0                 9           1             8    2     1       0.8629670367E-05       8    2    1         0.2241100969E-03      0.1361387942E-02

    ------------------------------------------------
       NWT REQUIRED            9 OUTER ITERATIONS 
       AND A TOTAL OF         14 INNER ITERATIONS.
    ------------------------------------------------

 OUTPUT CONTROL FOR STRESS PERIOD    5   TIME STEP    5
    PRINT BUDGET
    SAVE BUDGET
 UBUDSV SAVING "         STORAGE" ON UNIT102 AT TIME STEP     5, STRESS PERIOD    5
 UBUDSV SAVING "   CONSTANT HEAD" ON UNIT102 AT TIME STEP     5, STRESS PERIOD    5
 UBUDSV SAVING "FLOW RIGHT FACE " ON UNIT102 AT TIME STEP     5, STRESS PERIOD    5
 UBUDSV SAVING "FLOW FRONT FACE " ON UNIT102 AT TIME STEP     5, STRESS PERIOD    5

  HEAD DEP BOUNDS   PERIOD    5   STEP     5
 BOUNDARY      1   LAYER   1   ROW    13   COL     1   RATE   -0.295608    
 BOUNDARY      2   LAYER   1   ROW    14   COL     9   RATE    0.276804    



 STREAM LISTING     PERIOD      5   STEP        5

 LAYER ROW COL. STREAM  RCH.  FLOW INTO     FLOW TO   FLOW OUT OF   OVRLND.     DIRECT     STREAM       STREAM     STREAM     STREAM   STREAMBED  STREAMBED
                SEG.NO.  NO.  STRM. RCH.    AQUIFER    STRM. RCH.    RUNOFF     PRECIP       ET          HEAD       DEPTH      WIDTH   CONDCTNC.   GRADIENT

   1    1    1     1     1    7.7000E+01  4.2703E-01   7.6573E+01  0.000E+00  0.000E+00  0.000E+00  1.09476E+03  1.708E+00  2.016E+01  9.070E-02  1.569E+00
   1    2    2     1     2    7.6573E+01  6.6237E-01   7.5911E+01  0.000E+00  0.000E+00  0.000E+00  1.08976E+03  1.706E+00  2.011E+01  1.408E-01  1.569E+00
   1    3    3     1     3    7.5911E+01  5.6590E-01   7.5345E+01  0.000E+00  0.000E+00  0.000E+00  1.08412E+03  1.703E+00  2.006E+01  1.203E-01  1.568E+00
   1    3    4     1     4    7.5345E+01  5.2193E-01   7.4823E+01  0.000E+00  0.000E+00  0.000E+00  1.07911E+03  1.700E+00  2.001E+01  1.110E-01  1.567E+00
   1    4    5     2     1    7.2823E+01  4.1259E-01   7.2410E+01  0.000E+00  0.000E+00  0.000E+00  1.07422E+03  2.290E+00  1.200E+01  7.800E-02  1.763E+00
   1    5    6     2     2    7.2410E+01  3.1696E-01   7.2093E+01  0.000E+00  0.000E+00  0.000E+00  1.06879E+03  2.283E+00  1.200E+01  6.000E-02  1.761E+00
   1    6    6     2     3    7.2093E+01  3.1660E-01   7.1777E+01  0.000E+00  0.000E+00  0.000E+00  1.06407E+03  2.277E+00  1.200E+01  6.000E-02  1.759E+00
   1    7    6     2     4    7.1777E+01  3.1624E-01   7.1460E+01  0.000E+00  0.000E+00  0.000E+00  1.05935E+03  2.271E+00  1.200E+01  6.000E-02  1.757E+00
   1    8    6     2     5    7.1460E+01  3.1588E-01   7.1144E+01  0.000E+00  0.000E+00  0.000E+00  1.05462E+03  2.265E+00  1.200E+01  6.000E-02  1.755E+00
   1    3    5     3     1    2.0000E+00  2.8252E-01   1.7175E+00  0.000E+00  0.000E+00  0.000E+00  1.07555E+03  1.909E+00  9.636E+00  7.227E-02  1.955E+00
   1    3    6     3     2    1.7175E+00  2.4905E-01   1.4684E+00  0.000E+00  0.000E+00  0.000E+00  1.07264E+03  1.727E+00  8.909E+00  6.682E-02  1.864E+00
   1    3    7     3     3    1.4684E+00  1.9718E-01   1.2712E+00  0.000E+00  0.000E+00  0.000E+00  1.06987E+03  1.555E+00  8.218E+00  5.547E-02  1.777E+00
   1    4    8     3     4    1.2712E+00  2.2567E-01   1.0456E+00  0.000E+00  0.000E+00  0.000E+00  1.06682E+03  1.364E+00  7.455E+00  6.709E-02  1.682E+00
   1    5    8     3     5    1.0456E+00  1.5790E-01   8.8768E-01  0.000E+00  0.000E+00  0.000E+00  1.06362E+03  1.164E+00  6.655E+00  4.991E-02  1.582E+00
   1    6    8     3     6    8.8768E-01  5.5980E-02   8.3170E-01  0.000E+00  0.000E+00  0.000E+00  1.06158E+03  1.036E+00  6.145E+00  1.844E-02  1.518E+00
   1    5   10     4     1    1.0000E+01  9.0919E-02   9.9091E+00  0.000E+00  0.000E+00  0.000E+00  1.07836E+03  6.368E-01  1.000E+01  2.500E-02  1.212E+00
   1    5    9     4     2    9.9091E+00  1.8158E-01   9.7275E+00  0.000E+00  0.000E+00  0.000E+00  1.07154E+03  6.315E-01  1.000E+01  5.000E-02  1.211E+00
   1    6    8     4     3    9.7275E+00  1.2689E-01   9.6006E+00  0.000E+00  0.000E+00  0.000E+00  1.06381E+03  6.256E-01  1.000E+01  3.500E-02  1.209E+00
   1    6    8     5     1    1.0432E+01  2.2686E-01   1.0205E+01  0.000E+00  0.000E+00  0.000E+00  1.05868E+03  6.790E-01  1.542E+01  6.166E-02  1.226E+00
   1    7    7     5     2    1.0205E+01  2.7894E-01   9.9265E+00  0.000E+00  0.000E+00  0.000E+00  1.05417E+03  6.732E-01  1.519E+01  7.594E-02  1.224E+00
   1    8    7     5     3    9.9265E+00  1.9221E-01   9.7343E+00  0.000E+00  0.000E+00  0.000E+00  1.04992E+03  6.676E-01  1.497E+01  5.241E-02  1.223E+00
   1    8    6     5     4    9.7343E+00  1.3577E-01   9.5985E+00  0.000E+00  0.000E+00  0.000E+00  1.04691E+03  6.637E-01  1.482E+01  3.706E-02  1.221E+00
   1    9    6     6     1    8.0743E+01  3.2786E-01   8.0415E+01  0.000E+00  0.000E+00  0.000E+00  1.04519E+03  2.464E+00  1.200E+01  6.000E-02  1.821E+00
   1   10    7     6     2    8.0415E+01  3.2750E-01   8.0088E+01  0.000E+00  0.000E+00  0.000E+00  1.04064E+03  2.458E+00  1.200E+01  6.000E-02  1.819E+00
   1   11    7     6     3    8.0088E+01  3.2714E-01   7.9761E+01  0.000E+00  0.000E+00  0.000E+00  1.03609E+03  2.452E+00  1.200E+01  6.000E-02  1.817E+00
   1   12    7     6     4    7.9761E+01  3.2678E-01   7.9434E+01  0.000E+00  0.000E+00  0.000E+00  1.03154E+03  2.446E+00  1.200E+01  6.000E-02  1.815E+00
   1   13    7     6     5    7.9434E+01  2.2806E-02   7.9411E+01  0.000E+00  0.000E+00  0.000E+00  1.02835E+03  2.443E+00  1.200E+01  2.400E-02  3.168E-01
   1   14    9     7     1    1.5000E+02  1.2042E+00   1.4880E+02  0.000E+00  0.000E+00  0.000E+00  1.03987E+03  2.288E+00  5.530E+01  5.593E-01  7.177E-01
   1   13    8     7     2    1.4880E+02  1.6623E+00   1.4713E+02  0.000E+00  0.000E+00  0.000E+00  1.03478E+03  2.280E+00  5.526E+01  6.148E-01  9.012E-01
   1   13    7     7     3    1.4713E+02  1.2791E+00   1.4585E+02  0.000E+00  0.000E+00  0.000E+00  1.02969E+03  2.273E+00  5.523E+01  5.586E-01  7.633E-01
   1   13    6     8     1    2.2527E+02  9.7957E-01   2.2429E+02  0.000E+00  0.000E+00  0.000E+00  1.02515E+03  3.278E+00  4.753E+01  4.844E-01  6.741E-01
   1   13    5     8     2    2.2429E+02  1.7479E-01   2.2411E+02  0.000E+00  0.000E+00  0.000E+00  1.01890E+03  3.275E+00  4.749E+01  4.839E-01  1.204E-01
   1   13    4     8     3    2.2411E+02 -2.3972E+00   2.2651E+02  0.000E+00  0.000E+00  0.000E+00  1.01266E+03  3.281E+00  4.758E+01  4.848E+00 -1.648E-01
   1   13    3     8     4    2.2651E+02 -3.5192E+00   2.3003E+02  0.000E+00  0.000E+00  0.000E+00  1.00642E+03  3.297E+00  4.781E+01  4.872E+00 -2.408E-01
   1   13    2     8     5    2.3003E+02 -2.3118E+00   2.3234E+02  0.000E+00  0.000E+00  0.000E+00  1.00019E+03  3.313E+00  4.804E+01  4.895E+00 -1.574E-01
   1   13    1     8     6    2.3234E+02 -1.7104E+00   2.3405E+02  0.000E+00  0.000E+00  0.000E+00  9.95199E+02  3.324E+00  4.819E+01  2.947E+00 -1.935E-01
   1    6    8     9     1    0.0000E+00  0.0000E+00   0.0000E+00  0.000E+00  0.000E+00  0.000E+00  1.07850E+03  0.000E+00  4.000E+00  0.000E+00  1.000E+00



 UBDSV3 SAVING "     NETRECHARGE" ON UNIT 100 AT TIME STEP     5, STRESS PERIOD   5
 UBDSV3 SAVING "    NETDISCHARGE" ON UNIT 101 AT TIME STEP     5, STRESS PERIOD   5
 UBDSV3 SAVING "           GW ET" ON UNIT  61 AT TIME STEP     5, STRESS PERIOD   5
 UBDSV3 SAVING "    UZF RECHARGE" ON UNIT  61 AT TIME STEP     5, STRESS PERIOD   5
 UBDSV3 SAVING " SURFACE LEAKAGE" ON UNIT  61 AT TIME STEP     5, STRESS PERIOD   5
 UBDSV3 SAVING "       HORT+DUNN" ON UNIT  61 AT TIME STEP     5, STRESS PERIOD   5
 UBDSV3 SAVING "  STORAGE CHANGE" ON UNIT  61 AT TIME STEP     5, STRESS PERIOD   5


UNSATURATED ZONE PACKAGE VOLUMETRIC BUDGET FOR  TIME STEP     5 STRESS PERIOD    5
  ------------------------------------------------------------------------------



     CUMULATIVE VOLUMES      L**3       RATES FOR THIS TIME STEP      L**3/T
     ------------------                 ------------------------

           IN:                                      IN:
           ---                                      ---
        INFILTRATION =      151807.6534          INFILTRATION =       0.0000E+00

          OUT:                                     OUT:
          ----                                     ----
              UZF ET =     8637350.0414                UZF ET =          14.5000
        UZF RECHARGE =   225954139.3849          UZF RECHARGE =          26.8195

            IN - OUT =  -234439681.7729              IN - OUT =         -41.3195

          STORAGE:                                 STORAGE:
          --------                                 --------
      STORAGE CHANGE =  -234428128.7376        STORAGE CHANGE =         -41.3074

 PERCENT DISCREPANCY IS DIFFERENCE BETWEEN IN-OUT MINUS CHANGE IN STORAGE
 DIVIDED BY THE AVERAGE OF IN AND OUT TIMES 100

 PERCENT DISCREPANCY =          -0.00     PERCENT DISCREPANCY =          -0.03






1
  VOLUMETRIC BUDGET FOR ENTIRE MODEL AT END OF TIME STEP    5, STRESS PERIOD   5
  ------------------------------------------------------------------------------

     CUMULATIVE VOLUMES      L**3       RATES FOR THIS TIME STEP      L**3/T
     ------------------                 ------------------------

           IN:                                      IN:
           ---                                      ---
             STORAGE     =           0.0000               STORAGE     =           0.0000
       CONSTANT HEAD     =           0.0000         CONSTANT HEAD     =           0.0000
               WELLS     =           0.0000                 WELLS     =           0.0000
     HEAD DEP BOUNDS     =     2362460.0000       HEAD DEP BOUNDS     =           0.2768
      STREAM LEAKAGE     =    94582368.0000        STREAM LEAKAGE     =          12.8890
        UZF RECHARGE     =   225954192.0000          UZF RECHARGE     =          26.8195
               GW ET     =           0.0000                 GW ET     =           0.0000
     SURFACE LEAKAGE     =           0.0000       SURFACE LEAKAGE     =           0.0000
    SUPPLEMENTARY WELLS  =           0.0000      SUPPLEMENTARY WELLS  =           0.0000

                TOTAL IN =   322899008.0000                  TOTAL IN =          39.9854

          OUT:                                     OUT:
          ----                                     ----
             STORAGE     =   227969040.0000               STORAGE     =          29.7465
       CONSTANT HEAD     =           0.0000         CONSTANT HEAD     =           0.0000
               WELLS     =           0.0000                 WELLS     =           0.0000
     HEAD DEP BOUNDS     =     2438058.5000       HEAD DEP BOUNDS     =           0.2956
      STREAM LEAKAGE     =    92268968.0000        STREAM LEAKAGE     =           9.9386
        UZF RECHARGE     =           0.0000          UZF RECHARGE     =           0.0000
               GW ET     =      149513.8750                 GW ET     =       1.9428E-08
     SURFACE LEAKAGE     =           0.0000       SURFACE LEAKAGE     =           0.0000
    SUPPLEMENTARY WELLS  =       31277.1836      SUPPLEMENTARY WELLS  =           0.0000

               TOTAL OUT =   322856832.0000                 TOTAL OUT =          39.9807

                IN - OUT =       42176.0000                  IN - OUT =       4.6120E-03

     PERCENT DISCREPANCY =           0.01         PERCENT DISCREPANCY =           0.01






         TIME SUMMARY AT END OF TIME STEP    5 IN STRESS PERIOD    5
                    SECONDS     MINUTES      HOURS       DAYS        YEARS
                    -----------------------------------------------------------
   TIME STEP LENGTH  87600.      1460.0      24.333      1.0139     2.77588E-03
 STRESS PERIOD TIME 4.38000E+05  7300.0      121.67      5.0694     1.38794E-02
         TOTAL TIME 8.40840E+06 1.40140E+05  2335.7      97.319     0.26645    
1
 
 SOLVING FOR HEAD 
                                                   Max.-Head-Change                         Max.-Flux-Residual
  Residual-Control   Outer-Iter.   Inner-Iter.     Column Row Layer    Maximum-Head-Change  Column Row Layer    Maximum-Flux-Residual          L2-NORM 
          0                 1           2             2    2     1       0.1105097042E-01       2    2    1         0.5761545906E+00      0.2059094116E+01
          0                 2           2             8    2     1       0.2328101277E-02       2    2    1         0.1000750572E+00      0.4801470792E+00
          0                 3           2             8    2     1       0.1046406204E-02       8    2    1         0.2717466413E-01      0.1764382790E+00
          0                 4           2             8    2     1       0.4703249130E-03       8    2    1         0.1221412879E-01      0.7613384601E-01
          0                 5           2             8    2     1       0.2113950906E-03       8    2    1         0.5489844448E-02      0.3388832225E-01
          0                 6           1             8    2     1       0.9501475253E-04       8    2    1         0.2467498033E-02      0.1515820161E-01
          0                 7           1             8    2     1       0.4270575508E-04       8    2    1         0.1109054320E-02      0.6785558215E-02
          0                 8           1             8    2     1       0.1919468523E-04       8    2    1         0.4984803549E-03      0.3038043104E-02
          0                 9           1             8    2     1       0.8627298314E-05       8    2    1         0.2240487366E-03      0.1360292034E-02

    ------------------------------------------------
       NWT REQUIRED            9 OUTER ITERATIONS 
       AND A TOTAL OF         14 INNER ITERATIONS.
    ------------------------------------------------

 NO OUTPUT CONTROL FOR STRESS PERIOD    5   TIME STEP    6
 
 SOLVING FOR HEAD 
                                                   Max.-Head-Change                         Max.-Flux-Residual
  Residual-Control   Outer-Iter.   Inner-Iter.     Column Row Layer    Maximum-Head-Change  Column Row Layer    Maximum-Flux-Residual          L2-NORM 
          0                 1           2             2    2     1       0.1099793966E-01       2    2    1         0.5733635519E+00      0.2032406290E+01
          0                 2           2             1    2     1       0.2328582578E-02       2    2    1         0.9959744802E-01      0.4791737747E+00
          0                 3           2             1    2     1       0.1046139323E-02       1    2    1         0.2718157291E-01      0.1762717079E+00
          0                 4           2             8    2     1       0.4701979109E-03       8    2    1         0.1221084489E-01      0.7607101028E-01
          0                 5           2             8    2     1       0.2113377051E-03       8    2    1         0.5488360597E-02      0.3386042698E-01
          0                 6           1             8    2     1       0.9498882352E-04       8    2    1         0.2466827564E-02      0.1514562866E-01
          0                 7           1             8    2     1       0.4269404038E-04       8    2    1         0.1108751386E-02      0.6779884301E-02
          0                 8           1             8    2     1       0.1918939238E-04       8    2    1         0.4983434812E-03      0.3035483441E-02
          0                 9           1             8    2     1       0.8624906752E-05       8    2    1         0.2239868924E-03      0.1359136498E-02

    ------------------------------------------------
       NWT REQUIRED            9 OUTER ITERATIONS 
       AND A TOTAL OF         14 INNER ITERATIONS.
    ------------------------------------------------

 NO OUTPUT CONTROL FOR STRESS PERIOD    5   TIME STEP    7
 
 SOLVING FOR HEAD 
                                                   Max.-Head-Change                         Max.-Flux-Residual
  Residual-Control   Outer-Iter.   Inner-Iter.     Column Row Layer    Maximum-Head-Change  Column Row Layer    Maximum-Flux-Residual          L2-NORM 
          0                 1           2             2    2     1       0.1094583807E-01       2    2    1         0.5706215125E+00      0.2009863409E+01
          0                 2           2             1    2     1       0.2330609831E-02       2    2    1         0.9912819767E-01      0.4783192921E+00
          0                 3           2             1    2     1       0.1047046814E-02       1    2    1         0.2720520868E-01      0.1761035952E+00
          0                 4           2             1    2     1       0.4701879835E-03       1    2    1         0.1222021486E-01      0.7600527471E-01
          0                 5           2             8    2     1       0.2112799553E-03       1    2    1         0.5487281808E-02      0.3383118174E-01
          0                 6           1             8    2     1       0.9496272943E-04       8    2    1         0.2466152832E-02      0.1513245159E-01
          0                 7           1             8    2     1       0.4268225015E-04       8    2    1         0.1108446510E-02      0.6773942910E-02
          0                 8           1             8    2     1       0.1918406527E-04       8    2    1         0.4982057281E-03      0.3032805288E-02
          0                 9           1             8    2     1       0.8622499684E-05       8    2    1         0.2239246538E-03      0.1357929845E-02

    ------------------------------------------------
       NWT REQUIRED            9 OUTER ITERATIONS 
       AND A TOTAL OF         14 INNER ITERATIONS.
    ------------------------------------------------

 NO OUTPUT CONTROL FOR STRESS PERIOD    5   TIME STEP    8
 
 SOLVING FOR HEAD 
                                                   Max.-Head-Change                         Max.-Flux-Residual
  Residual-Control   Outer-Iter.   Inner-Iter.     Column Row Layer    Maximum-Head-Change  Column Row Layer    Maximum-Flux-Residual          L2-NORM 
          0                 1           2             2    2     1       0.1089473206E-01       2    2    1         0.5679319775E+00      0.1990545121E+01
          0                 2           2             1    2     1       0.2332602297E-02       2    2    1         0.9866790303E-01      0.4775045378E+00
          0                 3           2             1    2     1       0.1047938720E-02       1    2    1         0.2722843882E-01      0.1759277528E+00
          0                 4           2             1    2     1       0.4705877820E-03       1    2    1         0.1223061882E-01      0.7593627001E-01
          0                 5           2             1    2     1       0.2112864449E-03       1    2    1         0.5491946290E-02      0.3380057720E-01
          0                 6           1             8    2     1       0.9493650679E-04       1    2    1         0.2465737511E-02      0.1511867895E-01
          0                 7           1             8    2     1       0.4267040439E-04       8    2    1         0.1108140148E-02      0.6767734741E-02
          0                 8           1             8    2     1       0.1917871414E-04       8    2    1         0.4980673341E-03      0.3030007750E-02
          0                 9           1             8    2     1       0.8620082611E-05       8    2    1         0.2238621382E-03      0.1356669192E-02

    ------------------------------------------------
       NWT REQUIRED            9 OUTER ITERATIONS 
       AND A TOTAL OF         14 INNER ITERATIONS.
    ------------------------------------------------

 NO OUTPUT CONTROL FOR STRESS PERIOD    5   TIME STEP    9
 
 SOLVING FOR HEAD 
                                                   Max.-Head-Change                         Max.-Flux-Residual
  Residual-Control   Outer-Iter.   Inner-Iter.     Column Row Layer    Maximum-Head-Change  Column Row Layer    Maximum-Flux-Residual          L2-NORM 
          0                 1           2             2    2     1       0.1084451192E-01       2    2    1         0.5652891770E+00      0.1973564904E+01
          0                 2           2             1    2     1       0.2334560502E-02       2    2    1         0.9821557563E-01      0.4766757253E+00
          0                 3           2             1    2     1       0.1048815274E-02       1    2    1         0.2725126943E-01      0.1757415585E+00
          0                 4           2             1    2     1       0.4709806917E-03       1    2    1         0.1224084366E-01      0.7586330408E-01
          0                 5           2             1    2     1       0.2114626566E-03       1    2    1         0.5496530397E-02      0.3376821341E-01
          0                 6           1             1    2     1       0.9493705678E-04       1    2    1         0.2467793534E-02      0.1510412813E-01
          0                 7           1             8    2     1       0.4265848385E-04       1    2    1         0.1107916096E-02      0.6761185572E-02
          0                 8           1             8    2     1       0.1917332875E-04       8    2    1         0.4979280577E-03      0.3027059043E-02
          0                 9           1             8    2     1       0.8617650031E-05       8    2    1         0.2237992200E-03      0.1355343546E-02

    ------------------------------------------------
       NWT REQUIRED            9 OUTER ITERATIONS 
       AND A TOTAL OF         14 INNER ITERATIONS.
    ------------------------------------------------

 OUTPUT CONTROL FOR STRESS PERIOD    5   TIME STEP   10
    PRINT BUDGET
    SAVE BUDGET
 UBUDSV SAVING "         STORAGE" ON UNIT102 AT TIME STEP    10, STRESS PERIOD    5
 UBUDSV SAVING "   CONSTANT HEAD" ON UNIT102 AT TIME STEP    10, STRESS PERIOD    5
 UBUDSV SAVING "FLOW RIGHT FACE " ON UNIT102 AT TIME STEP    10, STRESS PERIOD    5
 UBUDSV SAVING "FLOW FRONT FACE " ON UNIT102 AT TIME STEP    10, STRESS PERIOD    5

  HEAD DEP BOUNDS   PERIOD    5   STEP    10
 BOUNDARY      1   LAYER   1   ROW    13   COL     1   RATE   -0.296682    
 BOUNDARY      2   LAYER   1   ROW    14   COL     9   RATE    0.276437    



 STREAM LISTING     PERIOD      5   STEP       10

 LAYER ROW COL. STREAM  RCH.  FLOW INTO     FLOW TO   FLOW OUT OF   OVRLND.     DIRECT     STREAM       STREAM     STREAM     STREAM   STREAMBED  STREAMBED
                SEG.NO.  NO.  STRM. RCH.    AQUIFER    STRM. RCH.    RUNOFF     PRECIP       ET          HEAD       DEPTH      WIDTH   CONDCTNC.   GRADIENT

   1    1    1     1     1    7.7000E+01  4.2703E-01   7.6573E+01  0.000E+00  0.000E+00  0.000E+00  1.09476E+03  1.708E+00  2.016E+01  9.070E-02  1.569E+00
   1    2    2     1     2    7.6573E+01  6.6237E-01   7.5911E+01  0.000E+00  0.000E+00  0.000E+00  1.08976E+03  1.706E+00  2.011E+01  1.408E-01  1.569E+00
   1    3    3     1     3    7.5911E+01  5.6590E-01   7.5345E+01  0.000E+00  0.000E+00  0.000E+00  1.08412E+03  1.703E+00  2.006E+01  1.203E-01  1.568E+00
   1    3    4     1     4    7.5345E+01  5.2193E-01   7.4823E+01  0.000E+00  0.000E+00  0.000E+00  1.07911E+03  1.700E+00  2.001E+01  1.110E-01  1.567E+00
   1    4    5     2     1    7.2823E+01  4.1259E-01   7.2410E+01  0.000E+00  0.000E+00  0.000E+00  1.07422E+03  2.290E+00  1.200E+01  7.800E-02  1.763E+00
   1    5    6     2     2    7.2410E+01  3.1696E-01   7.2093E+01  0.000E+00  0.000E+00  0.000E+00  1.06879E+03  2.283E+00  1.200E+01  6.000E-02  1.761E+00
   1    6    6     2     3    7.2093E+01  3.1660E-01   7.1777E+01  0.000E+00  0.000E+00  0.000E+00  1.06407E+03  2.277E+00  1.200E+01  6.000E-02  1.759E+00
   1    7    6     2     4    7.1777E+01  3.1624E-01   7.1460E+01  0.000E+00  0.000E+00  0.000E+00  1.05935E+03  2.271E+00  1.200E+01  6.000E-02  1.757E+00
   1    8    6     2     5    7.1460E+01  3.1588E-01   7.1144E+01  0.000E+00  0.000E+00  0.000E+00  1.05462E+03  2.265E+00  1.200E+01  6.000E-02  1.755E+00
   1    3    5     3     1    2.0000E+00  2.8252E-01   1.7175E+00  0.000E+00  0.000E+00  0.000E+00  1.07555E+03  1.909E+00  9.636E+00  7.227E-02  1.955E+00
   1    3    6     3     2    1.7175E+00  2.4905E-01   1.4684E+00  0.000E+00  0.000E+00  0.000E+00  1.07264E+03  1.727E+00  8.909E+00  6.682E-02  1.864E+00
   1    3    7     3     3    1.4684E+00  1.9718E-01   1.2712E+00  0.000E+00  0.000E+00  0.000E+00  1.06987E+03  1.555E+00  8.218E+00  5.547E-02  1.777E+00
   1    4    8     3     4    1.2712E+00  2.2567E-01   1.0456E+00  0.000E+00  0.000E+00  0.000E+00  1.06682E+03  1.364E+00  7.455E+00  6.709E-02  1.682E+00
   1    5    8     3     5    1.0456E+00  1.5790E-01   8.8768E-01  0.000E+00  0.000E+00  0.000E+00  1.06362E+03  1.164E+00  6.655E+00  4.991E-02  1.582E+00
   1    6    8     3     6    8.8768E-01  5.5980E-02   8.3170E-01  0.000E+00  0.000E+00  0.000E+00  1.06158E+03  1.036E+00  6.145E+00  1.844E-02  1.518E+00
   1    5   10     4     1    1.0000E+01  9.0919E-02   9.9091E+00  0.000E+00  0.000E+00  0.000E+00  1.07836E+03  6.368E-01  1.000E+01  2.500E-02  1.212E+00
   1    5    9     4     2    9.9091E+00  1.8158E-01   9.7275E+00  0.000E+00  0.000E+00  0.000E+00  1.07154E+03  6.315E-01  1.000E+01  5.000E-02  1.211E+00
   1    6    8     4     3    9.7275E+00  1.2689E-01   9.6006E+00  0.000E+00  0.000E+00  0.000E+00  1.06381E+03  6.256E-01  1.000E+01  3.500E-02  1.209E+00
   1    6    8     5     1    1.0432E+01  2.2686E-01   1.0205E+01  0.000E+00  0.000E+00  0.000E+00  1.05868E+03  6.790E-01  1.542E+01  6.166E-02  1.226E+00
   1    7    7     5     2    1.0205E+01  2.7894E-01   9.9265E+00  0.000E+00  0.000E+00  0.000E+00  1.05417E+03  6.732E-01  1.519E+01  7.594E-02  1.224E+00
   1    8    7     5     3    9.9265E+00  1.9221E-01   9.7343E+00  0.000E+00  0.000E+00  0.000E+00  1.04992E+03  6.676E-01  1.497E+01  5.241E-02  1.223E+00
   1    8    6     5     4    9.7343E+00  1.3577E-01   9.5985E+00  0.000E+00  0.000E+00  0.000E+00  1.04691E+03  6.637E-01  1.482E+01  3.706E-02  1.221E+00
   1    9    6     6     1    8.0743E+01  3.2786E-01   8.0415E+01  0.000E+00  0.000E+00  0.000E+00  1.04519E+03  2.464E+00  1.200E+01  6.000E-02  1.821E+00
   1   10    7     6     2    8.0415E+01  3.2750E-01   8.0088E+01  0.000E+00  0.000E+00  0.000E+00  1.04064E+03  2.458E+00  1.200E+01  6.000E-02  1.819E+00
   1   11    7     6     3    8.0088E+01  3.2714E-01   7.9761E+01  0.000E+00  0.000E+00  0.000E+00  1.03609E+03  2.452E+00  1.200E+01  6.000E-02  1.817E+00
   1   12    7     6     4    7.9761E+01  3.2678E-01   7.9434E+01  0.000E+00  0.000E+00  0.000E+00  1.03154E+03  2.446E+00  1.200E+01  6.000E-02  1.815E+00
   1   13    7     6     5    7.9434E+01  2.2461E-02   7.9411E+01  0.000E+00  0.000E+00  0.000E+00  1.02835E+03  2.443E+00  1.200E+01  2.400E-02  3.120E-01
   1   14    9     7     1    1.5000E+02  1.1989E+00   1.4880E+02  0.000E+00  0.000E+00  0.000E+00  1.03987E+03  2.288E+00  5.530E+01  5.593E-01  7.145E-01
   1   13    8     7     2    1.4880E+02  1.6543E+00   1.4715E+02  0.000E+00  0.000E+00  0.000E+00  1.03478E+03  2.281E+00  5.526E+01  6.148E-01  8.969E-01
   1   13    7     7     3    1.4715E+02  1.2712E+00   1.4588E+02  0.000E+00  0.000E+00  0.000E+00  1.02969E+03  2.273E+00  5.523E+01  5.586E-01  7.586E-01
   1   13    6     8     1    2.2529E+02  9.6777E-01   2.2432E+02  0.000E+00  0.000E+00  0.000E+00  1.02515E+03  3.278E+00  4.754E+01  4.844E-01  6.660E-01
   1   13    5     8     2    2.2432E+02  1.6300E-01   2.2416E+02  0.000E+00  0.000E+00  0.000E+00  1.01890E+03  3.275E+00  4.749E+01  4.840E-01  1.123E-01
   1   13    4     8     3    2.2416E+02 -2.5423E+00   2.2670E+02  0.000E+00  0.000E+00  0.000E+00  1.01266E+03  3.282E+00  4.759E+01  4.849E+00 -1.748E-01
   1   13    3     8     4    2.2670E+02 -3.6586E+00   2.3036E+02  0.000E+00  0.000E+00  0.000E+00  1.00642E+03  3.299E+00  4.783E+01  4.874E+00 -2.502E-01
   1   13    2     8     5    2.3036E+02 -2.4589E+00   2.3282E+02  0.000E+00  0.000E+00  0.000E+00  1.00019E+03  3.315E+00  4.807E+01  4.898E+00 -1.673E-01
   1   13    1     8     6    2.3282E+02 -1.7871E+00   2.3460E+02  0.000E+00  0.000E+00  0.000E+00  9.95201E+02  3.326E+00  4.823E+01  2.949E+00 -2.020E-01
   1    6    8     9     1    0.0000E+00  0.0000E+00   0.0000E+00  0.000E+00  0.000E+00  0.000E+00  1.07850E+03  0.000E+00  4.000E+00  0.000E+00  1.000E+00



 UBDSV3 SAVING "     NETRECHARGE" ON UNIT 100 AT TIME STEP    10, STRESS PERIOD   5
 UBDSV3 SAVING "    NETDISCHARGE" ON UNIT 101 AT TIME STEP    10, STRESS PERIOD   5
 UBDSV3 SAVING "           GW ET" ON UNIT  61 AT TIME STEP    10, STRESS PERIOD   5
 UBDSV3 SAVING "    UZF RECHARGE" ON UNIT  61 AT TIME STEP    10, STRESS PERIOD   5
 UBDSV3 SAVING " SURFACE LEAKAGE" ON UNIT  61 AT TIME STEP    10, STRESS PERIOD   5
 UBDSV3 SAVING "       HORT+DUNN" ON UNIT  61 AT TIME STEP    10, STRESS PERIOD   5
 UBDSV3 SAVING "  STORAGE CHANGE" ON UNIT  61 AT TIME STEP    10, STRESS PERIOD   5


UNSATURATED ZONE PACKAGE VOLUMETRIC BUDGET FOR  TIME STEP    10 STRESS PERIOD    5
  ------------------------------------------------------------------------------



     CUMULATIVE VOLUMES      L**3       RATES FOR THIS TIME STEP      L**3/T
     ------------------                 ------------------------

           IN:                                      IN:
           ---                                      ---
        INFILTRATION =      151807.6534          INFILTRATION =       0.0000E+00

          OUT:                                     OUT:
          ----                                     ----
              UZF ET =    14988350.0414                UZF ET =          14.5000
        UZF RECHARGE =   237634100.3516          UZF RECHARGE =          26.5723

            IN - OUT =  -252470642.7395              IN - OUT =         -41.0723

          STORAGE:                                 STORAGE:
          --------                                 --------
      STORAGE CHANGE =  -252455192.6689        STORAGE CHANGE =         -41.0650

 PERCENT DISCREPANCY IS DIFFERENCE BETWEEN IN-OUT MINUS CHANGE IN STORAGE
 DIVIDED BY THE AVERAGE OF IN AND OUT TIMES 100

 PERCENT DISCREPANCY =          -0.00     PERCENT DISCREPANCY =          -0.02






1
  VOLUMETRIC BUDGET FOR ENTIRE MODEL AT END OF TIME STEP   10, STRESS PERIOD   5
  ------------------------------------------------------------------------------

     CUMULATIVE VOLUMES      L**3       RATES FOR THIS TIME STEP      L**3/T
     ------------------                 ------------------------

           IN:                                      IN:
           ---                                      ---
             STORAGE     =           0.0000               STORAGE     =           0.0000
       CONSTANT HEAD     =           0.0000         CONSTANT HEAD     =           0.0000
               WELLS     =           0.0000                 WELLS     =           0.0000
     HEAD DEP BOUNDS     =     2483603.5000       HEAD DEP BOUNDS     =           0.2764
      STREAM LEAKAGE     =   100215720.0000        STREAM LEAKAGE     =          12.8438
        UZF RECHARGE     =   237634144.0000          UZF RECHARGE     =          26.5723
               GW ET     =           0.0000                 GW ET     =           0.0000
     SURFACE LEAKAGE     =           0.0000       SURFACE LEAKAGE     =           0.0000
    SUPPLEMENTARY WELLS  =           0.0000      SUPPLEMENTARY WELLS  =           0.0000

                TOTAL IN =   340333472.0000                  TOTAL IN =          39.6925

          OUT:                                     OUT:
          ----                                     ----
             STORAGE     =   240776656.0000               STORAGE     =          28.9443
       CONSTANT HEAD     =           0.0000         CONSTANT HEAD     =           0.0000
               WELLS     =           0.0000                 WELLS     =           0.0000
     HEAD DEP BOUNDS     =     2567828.0000       HEAD DEP BOUNDS     =           0.2967
      STREAM LEAKAGE     =    96764024.0000        STREAM LEAKAGE     =          10.4469
        UZF RECHARGE     =           0.0000          UZF RECHARGE     =           0.0000
               GW ET     =      149513.8750                 GW ET     =       1.9453E-08
     SURFACE LEAKAGE     =           0.0000       SURFACE LEAKAGE     =           0.0000
    SUPPLEMENTARY WELLS  =       31277.1836      SUPPLEMENTARY WELLS  =           0.0000

               TOTAL OUT =   340289280.0000                 TOTAL OUT =          39.6879

                IN - OUT =       44192.0000                  IN - OUT =       4.5776E-03

     PERCENT DISCREPANCY =           0.01         PERCENT DISCREPANCY =           0.01






         TIME SUMMARY AT END OF TIME STEP   10 IN STRESS PERIOD    5
                    SECONDS     MINUTES      HOURS       DAYS        YEARS
                    -----------------------------------------------------------
   TIME STEP LENGTH  87600.      1460.0      24.333      1.0139     2.77588E-03
 STRESS PERIOD TIME 8.76000E+05  14600.      243.33      10.139     2.77588E-02
         TOTAL TIME 8.84640E+06 1.47440E+05  2457.3      102.39     0.28033    
1
 
 SOLVING FOR HEAD 
                                                   Max.-Head-Change                         Max.-Flux-Residual
  Residual-Control   Outer-Iter.   Inner-Iter.     Column Row Layer    Maximum-Head-Change  Column Row Layer    Maximum-Flux-Residual          L2-NORM 
          0                 1           2             2    2     1       0.1079515739E-01       2    2    1         0.5626920375E+00      0.1958381954E+01
          0                 2           2             1    2     1       0.2336484970E-02       2    2    1         0.9777103372E-01      0.4759063614E+00
          0                 3           2             1    2     1       0.1049676710E-02       1    2    1         0.2727370661E-01      0.1755615463E+00
          0                 4           2             1    2     1       0.4713668181E-03       1    2    1         0.1225089212E-01      0.7578901941E-01
          0                 5           2             1    2     1       0.2116358230E-03       1    2    1         0.5501035348E-02      0.3373505672E-01
          0                 6           1             1    2     1       0.9501473227E-04       1    2    1         0.2469814024E-02      0.1508921625E-01
          0                 7           1             1    2     1       0.4265615431E-04       1    2    1         0.1108822435E-02      0.6754474337E-02
          0                 8           1             8    2     1       0.1916791760E-04       1    2    1         0.4977957606E-03      0.3024040153E-02
          0                 9           1             8    2     1       0.8615205695E-05       8    2    1         0.2237359985E-03      0.1353984652E-02

    ------------------------------------------------
       NWT REQUIRED            9 OUTER ITERATIONS 
       AND A TOTAL OF         14 INNER ITERATIONS.
    ------------------------------------------------

 NO OUTPUT CONTROL FOR STRESS PERIOD    5   TIME STEP   11
 
 SOLVING FOR HEAD 
                                                   Max.-Head-Change                         Max.-Flux-Residual
  Residual-Control   Outer-Iter.   Inner-Iter.     Column Row Layer    Maximum-Head-Change  Column Row Layer    Maximum-Flux-Residual          L2-NORM 
          0                 1           2             2    2     1       0.1074673643E-01       2    2    1         0.5601441112E+00      0.1946423126E+01
          0                 2           2             1    2     1       0.2338376264E-02       2    2    1         0.9733489204E-01      0.4752979835E+00
          0                 3           2             1    2     1       0.1050523284E-02       1    2    1         0.2729575696E-01      0.1753820804E+00
          0                 4           2             1    2     1       0.4717462768E-03       1    2    1         0.1226076719E-01      0.7571297102E-01
          0                 5           2             1    2     1       0.2118059963E-03       1    2    1         0.5505462490E-02      0.3370107630E-01
          0                 6           1             1    2     1       0.9509106391E-04       1    2    1         0.2471799581E-02      0.1507393888E-01
          0                 7           1             1    2     1       0.4269039577E-04       1    2    1         0.1109713089E-02      0.6747603307E-02
          0                 8           1             1    2     1       0.1916533370E-04       1    2    1         0.4981953037E-03      0.3020950182E-02
          0                 9           1             8    2     1       0.8612742352E-05       8    2    1         0.2236722929E-03      0.1352595418E-02

    ------------------------------------------------
       NWT REQUIRED            9 OUTER ITERATIONS 
       AND A TOTAL OF         14 INNER ITERATIONS.
    ------------------------------------------------

 NO OUTPUT CONTROL FOR STRESS PERIOD    5   TIME STEP   12
 
 SOLVING FOR HEAD 
                                                   Max.-Head-Change                         Max.-Flux-Residual
  Residual-Control   Outer-Iter.   Inner-Iter.     Column Row Layer    Maximum-Head-Change  Column Row Layer    Maximum-Flux-Residual          L2-NORM 
          0                 1           2             2    2     1       0.1069922904E-01       2    2    1         0.5576443376E+00      0.1935997038E+01
          0                 2           2             1    2     1       0.2340254917E-02       2    2    1         0.9690697096E-01      0.4747100102E+00
          0                 3           2             1    2     1       0.1051364214E-02       1    2    1         0.2731766010E-01      0.1752006037E+00
          0                 4           2             1    2     1       0.4721232057E-03       1    2    1         0.1227057643E-01      0.7563545850E-01
          0                 5           2             1    2     1       0.2119750351E-03       1    2    1         0.5509860126E-02      0.3366642634E-01
          0                 6           1             1    2     1       0.9516688632E-04       1    2    1         0.2473771891E-02      0.1505836910E-01
          0                 7           1             1    2     1       0.4272440812E-04       1    2    1         0.1110597792E-02      0.6740602970E-02
          0                 8           1             1    2     1       0.1918059172E-04       1    2    1         0.4985921730E-03      0.3017803522E-02
          0                 9           1             1    2     1       0.8610855514E-05       1    2    1         0.2238364458E-03      0.1351181418E-02

    ------------------------------------------------
       NWT REQUIRED            9 OUTER ITERATIONS 
       AND A TOTAL OF         14 INNER ITERATIONS.
    ------------------------------------------------

 NO OUTPUT CONTROL FOR STRESS PERIOD    5   TIME STEP   13
 
 SOLVING FOR HEAD 
                                                   Max.-Head-Change                         Max.-Flux-Residual
  Residual-Control   Outer-Iter.   Inner-Iter.     Column Row Layer    Maximum-Head-Change  Column Row Layer    Maximum-Flux-Residual          L2-NORM 
          0                 1           2             2    2     1       0.1065252724E-01       2    2    1         0.5551870799E+00      0.1926822401E+01
          0                 2           2             1    2     1       0.2342081346E-02       2    2    1         0.9648629346E-01      0.4741332963E+00
          0                 3           2             1    2     1       0.1052181724E-02       1    2    1         0.2733895406E-01      0.1750152607E+00
          0                 4           2             1    2     1       0.4724896246E-03       1    2    1         0.1228011242E-01      0.7555573405E-01
          0                 5           2             1    2     1       0.2121393543E-03       1    2    1         0.5514135105E-02      0.3363078452E-01
          0                 6           1             1    2     1       0.9524059005E-04       1    2    1         0.2475689147E-02      0.1504235817E-01
          0                 7           1             1    2     1       0.4275746979E-04       1    2    1         0.1111457778E-02      0.6733408163E-02
          0                 8           1             1    2     1       0.1919542281E-04       1    2    1         0.4989779399E-03      0.3014570822E-02
          0                 9           1             1    2     1       0.8617508468E-05       1    2    1         0.2240094937E-03      0.1349728974E-02

    ------------------------------------------------
       NWT REQUIRED            9 OUTER ITERATIONS 
       AND A TOTAL OF         14 INNER ITERATIONS.
    ------------------------------------------------

 NO OUTPUT CONTROL FOR STRESS PERIOD    5   TIME STEP   14
 
 SOLVING FOR HEAD 
                                                   Max.-Head-Change                         Max.-Flux-Residual
  Residual-Control   Outer-Iter.   Inner-Iter.     Column Row Layer    Maximum-Head-Change  Column Row Layer    Maximum-Flux-Residual          L2-NORM 
          0                 1           2             2    2     1       0.1060670033E-01       2    2    1         0.5527759366E+00      0.1918674268E+01
          0                 2           2             1    2     1       0.2343876143E-02       2    2    1         0.9607348866E-01      0.4735635892E+00
          0                 3           2             1    2     1       0.1052985060E-02       1    2    1         0.2735987915E-01      0.1748280179E+00
          0                 4           2             1    2     1       0.4728496845E-03       1    2    1         0.1228948305E-01      0.7547505879E-01
          0                 5           2             1    2     1       0.2123008195E-03       1    2    1         0.5518335875E-02      0.3359472556E-01
          0                 6           1             1    2     1       0.9531301195E-04       1    2    1         0.2477573078E-02      0.1502616646E-01
          0                 7           1             1    2     1       0.4278995547E-04       1    2    1         0.1112302799E-02      0.6726133692E-02
          0                 8           1             1    2     1       0.1920999503E-04       1    2    1         0.4993569927E-03      0.3011303423E-02
          0                 9           1             1    2     1       0.8624045370E-05       1    2    1         0.2241795296E-03      0.1348261696E-02

    ------------------------------------------------
       NWT REQUIRED            9 OUTER ITERATIONS 
       AND A TOTAL OF         14 INNER ITERATIONS.
    ------------------------------------------------

 OUTPUT CONTROL FOR STRESS PERIOD    5   TIME STEP   15
    PRINT BUDGET
    SAVE BUDGET
 UBUDSV SAVING "         STORAGE" ON UNIT102 AT TIME STEP    15, STRESS PERIOD    5
 UBUDSV SAVING "   CONSTANT HEAD" ON UNIT102 AT TIME STEP    15, STRESS PERIOD    5
 UBUDSV SAVING "FLOW RIGHT FACE " ON UNIT102 AT TIME STEP    15, STRESS PERIOD    5
 UBUDSV SAVING "FLOW FRONT FACE " ON UNIT102 AT TIME STEP    15, STRESS PERIOD    5

  HEAD DEP BOUNDS   PERIOD    5   STEP    15
 BOUNDARY      1   LAYER   1   ROW    13   COL     1   RATE   -0.297484    
 BOUNDARY      2   LAYER   1   ROW    14   COL     9   RATE    0.276079    



 STREAM LISTING     PERIOD      5   STEP       15

 LAYER ROW COL. STREAM  RCH.  FLOW INTO     FLOW TO   FLOW OUT OF   OVRLND.     DIRECT     STREAM       STREAM     STREAM     STREAM   STREAMBED  STREAMBED
                SEG.NO.  NO.  STRM. RCH.    AQUIFER    STRM. RCH.    RUNOFF     PRECIP       ET          HEAD       DEPTH      WIDTH   CONDCTNC.   GRADIENT

   1    1    1     1     1    7.7000E+01  4.2703E-01   7.6573E+01  0.000E+00  0.000E+00  0.000E+00  1.09476E+03  1.708E+00  2.016E+01  9.070E-02  1.569E+00
   1    2    2     1     2    7.6573E+01  6.6237E-01   7.5911E+01  0.000E+00  0.000E+00  0.000E+00  1.08976E+03  1.706E+00  2.011E+01  1.408E-01  1.569E+00
   1    3    3     1     3    7.5911E+01  5.6590E-01   7.5345E+01  0.000E+00  0.000E+00  0.000E+00  1.08412E+03  1.703E+00  2.006E+01  1.203E-01  1.568E+00
   1    3    4     1     4    7.5345E+01  5.2193E-01   7.4823E+01  0.000E+00  0.000E+00  0.000E+00  1.07911E+03  1.700E+00  2.001E+01  1.110E-01  1.567E+00
   1    4    5     2     1    7.2823E+01  4.1259E-01   7.2410E+01  0.000E+00  0.000E+00  0.000E+00  1.07422E+03  2.290E+00  1.200E+01  7.800E-02  1.763E+00
   1    5    6     2     2    7.2410E+01  3.1696E-01   7.2093E+01  0.000E+00  0.000E+00  0.000E+00  1.06879E+03  2.283E+00  1.200E+01  6.000E-02  1.761E+00
   1    6    6     2     3    7.2093E+01  3.1660E-01   7.1777E+01  0.000E+00  0.000E+00  0.000E+00  1.06407E+03  2.277E+00  1.200E+01  6.000E-02  1.759E+00
   1    7    6     2     4    7.1777E+01  3.1624E-01   7.1460E+01  0.000E+00  0.000E+00  0.000E+00  1.05935E+03  2.271E+00  1.200E+01  6.000E-02  1.757E+00
   1    8    6     2     5    7.1460E+01  3.1588E-01   7.1144E+01  0.000E+00  0.000E+00  0.000E+00  1.05462E+03  2.265E+00  1.200E+01  6.000E-02  1.755E+00
   1    3    5     3     1    2.0000E+00  2.8252E-01   1.7175E+00  0.000E+00  0.000E+00  0.000E+00  1.07555E+03  1.909E+00  9.636E+00  7.227E-02  1.955E+00
   1    3    6     3     2    1.7175E+00  2.4905E-01   1.4684E+00  0.000E+00  0.000E+00  0.000E+00  1.07264E+03  1.727E+00  8.909E+00  6.682E-02  1.864E+00
   1    3    7     3     3    1.4684E+00  1.9718E-01   1.2712E+00  0.000E+00  0.000E+00  0.000E+00  1.06987E+03  1.555E+00  8.218E+00  5.547E-02  1.777E+00
   1    4    8     3     4    1.2712E+00  2.2567E-01   1.0456E+00  0.000E+00  0.000E+00  0.000E+00  1.06682E+03  1.364E+00  7.455E+00  6.709E-02  1.682E+00
   1    5    8     3     5    1.0456E+00  1.5790E-01   8.8768E-01  0.000E+00  0.000E+00  0.000E+00  1.06362E+03  1.164E+00  6.655E+00  4.991E-02  1.582E+00
   1    6    8     3     6    8.8768E-01  5.5980E-02   8.3170E-01  0.000E+00  0.000E+00  0.000E+00  1.06158E+03  1.036E+00  6.145E+00  1.844E-02  1.518E+00
   1    5   10     4     1    1.0000E+01  9.0919E-02   9.9091E+00  0.000E+00  0.000E+00  0.000E+00  1.07836E+03  6.368E-01  1.000E+01  2.500E-02  1.212E+00
   1    5    9     4     2    9.9091E+00  1.8158E-01   9.7275E+00  0.000E+00  0.000E+00  0.000E+00  1.07154E+03  6.315E-01  1.000E+01  5.000E-02  1.211E+00
   1    6    8     4     3    9.7275E+00  1.2689E-01   9.6006E+00  0.000E+00  0.000E+00  0.000E+00  1.06381E+03  6.256E-01  1.000E+01  3.500E-02  1.209E+00
   1    6    8     5     1    1.0432E+01  2.2686E-01   1.0205E+01  0.000E+00  0.000E+00  0.000E+00  1.05868E+03  6.790E-01  1.542E+01  6.166E-02  1.226E+00
   1    7    7     5     2    1.0205E+01  2.7894E-01   9.9265E+00  0.000E+00  0.000E+00  0.000E+00  1.05417E+03  6.732E-01  1.519E+01  7.594E-02  1.224E+00
   1    8    7     5     3    9.9265E+00  1.9221E-01   9.7343E+00  0.000E+00  0.000E+00  0.000E+00  1.04992E+03  6.676E-01  1.497E+01  5.241E-02  1.223E+00
   1    8    6     5     4    9.7343E+00  1.3577E-01   9.5985E+00  0.000E+00  0.000E+00  0.000E+00  1.04691E+03  6.637E-01  1.482E+01  3.706E-02  1.221E+00
   1    9    6     6     1    8.0743E+01  3.2786E-01   8.0415E+01  0.000E+00  0.000E+00  0.000E+00  1.04519E+03  2.464E+00  1.200E+01  6.000E-02  1.821E+00
   1   10    7     6     2    8.0415E+01  3.2750E-01   8.0088E+01  0.000E+00  0.000E+00  0.000E+00  1.04064E+03  2.458E+00  1.200E+01  6.000E-02  1.819E+00
   1   11    7     6     3    8.0088E+01  3.2714E-01   7.9761E+01  0.000E+00  0.000E+00  0.000E+00  1.03609E+03  2.452E+00  1.200E+01  6.000E-02  1.817E+00
   1   12    7     6     4    7.9761E+01  3.2678E-01   7.9434E+01  0.000E+00  0.000E+00  0.000E+00  1.03154E+03  2.446E+00  1.200E+01  6.000E-02  1.815E+00
   1   13    7     6     5    7.9434E+01  2.2132E-02   7.9412E+01  0.000E+00  0.000E+00  0.000E+00  1.02835E+03  2.443E+00  1.200E+01  2.400E-02  3.074E-01
   1   14    9     7     1    1.5000E+02  1.1936E+00   1.4881E+02  0.000E+00  0.000E+00  0.000E+00  1.03987E+03  2.288E+00  5.530E+01  5.593E-01  7.113E-01
   1   13    8     7     2    1.4881E+02  1.6478E+00   1.4716E+02  0.000E+00  0.000E+00  0.000E+00  1.03478E+03  2.281E+00  5.526E+01  6.148E-01  8.933E-01
   1   13    7     7     3    1.4716E+02  1.2635E+00   1.4590E+02  0.000E+00  0.000E+00  0.000E+00  1.02969E+03  2.273E+00  5.523E+01  5.586E-01  7.540E-01
   1   13    6     8     1    2.2531E+02  9.5728E-01   2.2435E+02  0.000E+00  0.000E+00  0.000E+00  1.02515E+03  3.278E+00  4.754E+01  4.844E-01  6.587E-01
   1   13    5     8     2    2.2435E+02  1.5220E-01   2.2420E+02  0.000E+00  0.000E+00  0.000E+00  1.01890E+03  3.275E+00  4.749E+01  4.840E-01  1.048E-01
   1   13    4     8     3    2.2420E+02 -2.6340E+00   2.2683E+02  0.000E+00  0.000E+00  0.000E+00  1.01266E+03  3.282E+00  4.759E+01  4.850E+00 -1.810E-01
   1   13    3     8     4    2.2683E+02 -3.7477E+00   2.3058E+02  0.000E+00  0.000E+00  0.000E+00  1.00642E+03  3.300E+00  4.784E+01  4.875E+00 -2.562E-01
   1   13    2     8     5    2.3058E+02 -2.5414E+00   2.3312E+02  0.000E+00  0.000E+00  0.000E+00  1.00019E+03  3.317E+00  4.809E+01  4.900E+00 -1.729E-01
   1   13    1     8     6    2.3312E+02 -1.8450E+00   2.3497E+02  0.000E+00  0.000E+00  0.000E+00  9.95203E+02  3.328E+00  4.826E+01  2.951E+00 -2.084E-01
   1    6    8     9     1    0.0000E+00  0.0000E+00   0.0000E+00  0.000E+00  0.000E+00  0.000E+00  1.07850E+03  0.000E+00  4.000E+00  0.000E+00  1.000E+00



 UBDSV3 SAVING "     NETRECHARGE" ON UNIT 100 AT TIME STEP    15, STRESS PERIOD   5
 UBDSV3 SAVING "    NETDISCHARGE" ON UNIT 101 AT TIME STEP    15, STRESS PERIOD   5
 UBDSV3 SAVING "           GW ET" ON UNIT  61 AT TIME STEP    15, STRESS PERIOD   5
 UBDSV3 SAVING "    UZF RECHARGE" ON UNIT  61 AT TIME STEP    15, STRESS PERIOD   5
 UBDSV3 SAVING " SURFACE LEAKAGE" ON UNIT  61 AT TIME STEP    15, STRESS PERIOD   5
 UBDSV3 SAVING "       HORT+DUNN" ON UNIT  61 AT TIME STEP    15, STRESS PERIOD   5
 UBDSV3 SAVING "  STORAGE CHANGE" ON UNIT  61 AT TIME STEP    15, STRESS PERIOD   5


UNSATURATED ZONE PACKAGE VOLUMETRIC BUDGET FOR  TIME STEP    15 STRESS PERIOD    5
  ------------------------------------------------------------------------------



     CUMULATIVE VOLUMES      L**3       RATES FOR THIS TIME STEP      L**3/T
     ------------------                 ------------------------

           IN:                                      IN:
           ---                                      ---
        INFILTRATION =      151807.6534          INFILTRATION =       0.0000E+00

          OUT:                                     OUT:
          ----                                     ----
              UZF ET =    21339347.3509                UZF ET =          14.5000
        UZF RECHARGE =   249223549.1214          UZF RECHARGE =          26.3990

            IN - OUT =  -270411088.8190              IN - OUT =         -40.8990

          STORAGE:                                 STORAGE:
          --------                                 --------
      STORAGE CHANGE =  -270393115.6293        STORAGE CHANGE =         -40.8940

 PERCENT DISCREPANCY IS DIFFERENCE BETWEEN IN-OUT MINUS CHANGE IN STORAGE
 DIVIDED BY THE AVERAGE OF IN AND OUT TIMES 100

 PERCENT DISCREPANCY =          -0.00     PERCENT DISCREPANCY =          -0.01






1
  VOLUMETRIC BUDGET FOR ENTIRE MODEL AT END OF TIME STEP   15, STRESS PERIOD   5
  ------------------------------------------------------------------------------

     CUMULATIVE VOLUMES      L**3       RATES FOR THIS TIME STEP      L**3/T
     ------------------                 ------------------------

           IN:                                      IN:
           ---                                      ---
             STORAGE     =           0.0000               STORAGE     =           0.0000
       CONSTANT HEAD     =           0.0000         CONSTANT HEAD     =           0.0000
               WELLS     =           0.0000                 WELLS     =           0.0000
     HEAD DEP BOUNDS     =     2604588.5000       HEAD DEP BOUNDS     =           0.2761
      STREAM LEAKAGE     =   105830408.0000        STREAM LEAKAGE     =          12.8028
        UZF RECHARGE     =   249223600.0000          UZF RECHARGE     =          26.3990
               GW ET     =           0.0000                 GW ET     =           0.0000
     SURFACE LEAKAGE     =           0.0000       SURFACE LEAKAGE     =           0.0000
    SUPPLEMENTARY WELLS  =           0.0000      SUPPLEMENTARY WELLS  =           0.0000

                TOTAL IN =   357658592.0000                  TOTAL IN =          39.4779

          OUT:                                     OUT:
          ----                                     ----
             STORAGE     =   253304768.0000               STORAGE     =          28.4078
       CONSTANT HEAD     =           0.0000         CONSTANT HEAD     =           0.0000
               WELLS     =           0.0000                 WELLS     =           0.0000
     HEAD DEP BOUNDS     =     2697993.5000       HEAD DEP BOUNDS     =           0.2975
      STREAM LEAKAGE     =   101428856.0000        STREAM LEAKAGE     =          10.7681
        UZF RECHARGE     =           0.0000          UZF RECHARGE     =           0.0000
               GW ET     =      149516.6875                 GW ET     =       2.0267E-08
     SURFACE LEAKAGE     =           0.0000       SURFACE LEAKAGE     =           0.0000
    SUPPLEMENTARY WELLS  =       31277.1836      SUPPLEMENTARY WELLS  =           0.0000

               TOTAL OUT =   357612384.0000                 TOTAL OUT =          39.4734

                IN - OUT =       46208.0000                  IN - OUT =       4.5586E-03

     PERCENT DISCREPANCY =           0.01         PERCENT DISCREPANCY =           0.01






         TIME SUMMARY AT END OF TIME STEP   15 IN STRESS PERIOD    5
                    SECONDS     MINUTES      HOURS       DAYS        YEARS
                    -----------------------------------------------------------
   TIME STEP LENGTH  87600.      1460.0      24.333      1.0139     2.77588E-03
 STRESS PERIOD TIME 1.31400E+06  21900.      365.00      15.208     4.16381E-02
         TOTAL TIME 9.28440E+06 1.54740E+05  2579.0      107.46     0.29420    
1
 
 SOLVING FOR HEAD 
                                                   Max.-Head-Change                         Max.-Flux-Residual
  Residual-Control   Outer-Iter.   Inner-Iter.     Column Row Layer    Maximum-Head-Change  Column Row Layer    Maximum-Flux-Residual          L2-NORM 
          0                 1           2             2    2     1       0.1056164187E-01       2    2    1         0.5504053271E+00      0.1911086500E+01
          0                 2           2             1    2     1       0.2345659808E-02       2    2    1         0.9566759566E-01      0.4729573828E+00
          0                 3           2             1    2     1       0.1053783427E-02       1    2    1         0.2738067462E-01      0.1746336832E+00
          0                 4           2             1    2     1       0.4732075168E-03       1    2    1         0.1229879573E-01      0.7539224111E-01
          0                 5           2             1    2     1       0.2124612855E-03       1    2    1         0.5522510676E-02      0.3355781262E-01
          0                 6           1             1    2     1       0.9538498565E-04       1    2    1         0.2479445359E-02      0.1500960536E-01
          0                 7           1             1    2     1       0.4282224005E-04       1    2    1         0.1113142592E-02      0.6718697596E-02
          0                 8           1             1    2     1       0.1922447696E-04       1    2    1         0.4997336949E-03      0.3007964522E-02
          0                 9           1             1    2     1       0.8630541754E-05       1    2    1         0.2243485106E-03      0.1346762603E-02

    ------------------------------------------------
       NWT REQUIRED            9 OUTER ITERATIONS 
       AND A TOTAL OF         14 INNER ITERATIONS.
    ------------------------------------------------

 NO OUTPUT CONTROL FOR STRESS PERIOD    5   TIME STEP   16
 
 SOLVING FOR HEAD 
                                                   Max.-Head-Change                         Max.-Flux-Residual
  Residual-Control   Outer-Iter.   Inner-Iter.     Column Row Layer    Maximum-Head-Change  Column Row Layer    Maximum-Flux-Residual          L2-NORM 
          0                 1           2             2    2     1       0.1051742184E-01       2    2    1         0.5480789278E+00      0.1903212106E+01
          0                 2           2             1    2     1       0.2347392720E-02       2    2    1         0.9526924557E-01      0.4723407576E+00
          0                 3           2             1    2     1       0.1054559035E-02       1    2    1         0.2740087806E-01      0.1744391297E+00
          0                 4           2             1    2     1       0.4735551349E-03       1    2    1         0.1230784283E-01      0.7530841694E-01
          0                 5           2             1    2     1       0.2126171654E-03       1    2    1         0.5526566265E-02      0.3352036873E-01
          0                 6           1             1    2     1       0.9545489994E-04       1    2    1         0.2481264112E-02      0.1499280424E-01
          0                 7           1             1    2     1       0.4285359972E-04       1    2    1         0.1113958346E-02      0.6711154896E-02
          0                 8           1             1    2     1       0.1923854370E-04       1    2    1         0.5000996010E-03      0.3004578622E-02
          0                 9           1             1    2     1       0.8636851055E-05       1    2    1         0.2245126413E-03      0.1345242885E-02

    ------------------------------------------------
       NWT REQUIRED            9 OUTER ITERATIONS 
       AND A TOTAL OF         14 INNER ITERATIONS.
    ------------------------------------------------

 NO OUTPUT CONTROL FOR STRESS PERIOD    5   TIME STEP   17
 
 SOLVING FOR HEAD 
                                                   Max.-Head-Change                         Max.-Flux-Residual
  Residual-Control   Outer-Iter.   Inner-Iter.     Column Row Layer    Maximum-Head-Change  Column Row Layer    Maximum-Flux-Residual          L2-NORM 
          0                 1           2             2    2     1       0.1047393430E-01       2    2    1         0.5457911636E+00      0.1885973706E+01
          0                 2           2             1    2     1       0.2349115453E-02       2    2    1         0.9487748399E-01      0.4712727581E+00
          0                 3           2             1    2     1       0.1055330097E-02       1    2    1         0.2742096295E-01      0.1742242872E+00
          0                 4           2             1    2     1       0.4739007166E-03       1    2    1         0.1231683695E-01      0.7521870496E-01
          0                 5           2             1    2     1       0.2127721320E-03       1    2    1         0.5530598098E-02      0.3348037733E-01
          0                 6           1             1    2     1       0.9552440355E-04       1    2    1         0.2483072204E-02      0.1497486721E-01
          0                 7           1             1    2     1       0.4288477582E-04       1    2    1         0.1114769324E-02      0.6703107043E-02
          0                 8           1             1    2     1       0.1925252791E-04       1    2    1         0.5004633613E-03      0.3000967886E-02
          0                 9           1             1    2     1       0.8643124091E-05       1    2    1         0.2246758074E-03      0.1343624276E-02

    ------------------------------------------------
       NWT REQUIRED            9 OUTER ITERATIONS 
       AND A TOTAL OF         14 INNER ITERATIONS.
    ------------------------------------------------

 NO OUTPUT CONTROL FOR STRESS PERIOD    5   TIME STEP   18
 
 SOLVING FOR HEAD 
                                                   Max.-Head-Change                         Max.-Flux-Residual
  Residual-Control   Outer-Iter.   Inner-Iter.     Column Row Layer    Maximum-Head-Change  Column Row Layer    Maximum-Flux-Residual          L2-NORM 
          0                 1           2             2    2     1       0.1043125054E-01       2    2    1         0.5435457582E+00      0.1881724420E+01
          0                 2           2             1    2     1       0.2350808398E-02       2    2    1         0.9449295587E-01      0.4706806800E+00
          0                 3           2             1    2     1       0.1056087814E-02       1    2    1         0.2744070050E-01      0.1740168384E+00
          0                 4           2             1    2     1       0.4742403106E-03       1    2    1         0.1232567536E-01      0.7512916819E-01
          0                 5           2             1    2     1       0.2129244103E-03       1    2    1         0.5534560061E-02      0.3344039871E-01
          0                 6           1             1    2     1       0.9559270087E-04       1    2    1         0.2484848937E-02      0.1495694072E-01
          0                 7           1             1    2     1       0.4291540967E-04       1    2    1         0.1115566217E-02      0.6695064893E-02
          0                 8           1             1    2     1       0.1926626876E-04       1    2    1         0.5008208027E-03      0.2997360216E-02
          0                 9           1             1    2     1       0.8649287577E-05       1    2    1         0.2248361388E-03      0.1342004700E-02

    ------------------------------------------------
       NWT REQUIRED            9 OUTER ITERATIONS 
       AND A TOTAL OF         14 INNER ITERATIONS.
    ------------------------------------------------

 NO OUTPUT CONTROL FOR STRESS PERIOD    5   TIME STEP   19
 
 SOLVING FOR HEAD 
                                                   Max.-Head-Change                         Max.-Flux-Residual
  Residual-Control   Outer-Iter.   Inner-Iter.     Column Row Layer    Maximum-Head-Change  Column Row Layer    Maximum-Flux-Residual          L2-NORM 
          0                 1           2             2    2     1       0.1038935363E-01       2    2    1         0.5413418192E+00      0.1877769055E+01
          0                 2           2             1    2     1       0.2352451985E-02       2    2    1         0.9411550894E-01      0.4701003277E+00
          0                 3           2             1    2     1       0.1056823396E-02       1    2    1         0.2745986229E-01      0.1738081028E+00
          0                 4           2             1    2     1       0.4745699707E-03       1    2    1         0.1233425550E-01      0.7503871562E-01
          0                 5           2             1    2     1       0.2130722295E-03       1    2    1         0.5538406100E-02      0.3340000005E-01
          0                 6           1             1    2     1       0.9565899581E-04       1    2    1         0.2486573616E-02      0.1493882915E-01
          0                 7           1             1    2     1       0.4294514437E-04       1    2    1         0.1116339736E-02      0.6686941279E-02
          0                 8           1             1    2     1       0.1927960568E-04       1    2    1         0.5011677476E-03      0.2993717113E-02
          0                 9           1             1    2     1       0.8655269733E-05       1    2    1         0.2249917566E-03      0.1340376154E-02

    ------------------------------------------------
       NWT REQUIRED            9 OUTER ITERATIONS 
       AND A TOTAL OF         14 INNER ITERATIONS.
    ------------------------------------------------

 NO OUTPUT CONTROL FOR STRESS PERIOD    5   TIME STEP   20
 
 SOLVING FOR HEAD 
                                                   Max.-Head-Change                         Max.-Flux-Residual
  Residual-Control   Outer-Iter.   Inner-Iter.     Column Row Layer    Maximum-Head-Change  Column Row Layer    Maximum-Flux-Residual          L2-NORM 
          0                 1           2             2    2     1       0.1034813856E-01       2    2    1         0.5391738634E+00      0.1873904151E+01
          0                 2           2             1    2     1       0.2354086791E-02       2    2    1         0.9374419308E-01      0.4694813658E+00
          0                 3           2             1    2     1       0.1057555061E-02       1    2    1         0.2747892186E-01      0.1735933936E+00
          0                 4           2             1    2     1       0.4748978756E-03       1    2    1         0.1234278995E-01      0.7494725176E-01
          0                 5           2             1    2     1       0.2132192605E-03       1    2    1         0.5542231655E-02      0.3335931016E-01
          0                 6           1             1    2     1       0.9572493708E-04       1    2    1         0.2488289105E-02      0.1492060237E-01
          0                 7           1             1    2     1       0.4297472050E-04       1    2    1         0.1117109127E-02      0.6678770190E-02
          0                 8           1             1    2     1       0.1929287132E-04       1    2    1         0.5015128312E-03      0.2990053244E-02
          0                 9           1             1    2     1       0.8661219875E-05       1    2    1         0.2251465384E-03      0.1338729279E-02

    ------------------------------------------------
       NWT REQUIRED            9 OUTER ITERATIONS 
       AND A TOTAL OF         14 INNER ITERATIONS.
    ------------------------------------------------

 NO OUTPUT CONTROL FOR STRESS PERIOD    5   TIME STEP   21
 
 SOLVING FOR HEAD 
                                                   Max.-Head-Change                         Max.-Flux-Residual
  Residual-Control   Outer-Iter.   Inner-Iter.     Column Row Layer    Maximum-Head-Change  Column Row Layer    Maximum-Flux-Residual          L2-NORM 
          0                 1           2             2    2     1       0.1030758943E-01       2    2    1         0.5370410528E+00      0.1869634679E+01
          0                 2           2             1    2     1       0.2355693115E-02       2    2    1         0.9337886528E-01      0.4687579026E+00
          0                 3           2             1    2     1       0.1058273960E-02       1    2    1         0.2749764926E-01      0.1733647909E+00
          0                 4           2             1    2     1       0.4752200523E-03       1    2    1         0.1235117548E-01      0.7485358351E-01
          0                 5           2             1    2     1       0.2133637204E-03       1    2    1         0.5545990383E-02      0.3331799998E-01
          0                 6           1             1    2     1       0.9578972410E-04       1    2    1         0.2489974601E-02      0.1490213374E-01
          0                 7           1             1    2     1       0.4300377790E-04       1    2    1         0.1117865058E-02      0.6670494297E-02
          0                 8           1             1    2     1       0.1930590486E-04       1    2    1         0.5018518881E-03      0.2986344114E-02
          0                 9           1             1    2     1       0.8667065720E-05       1    2    1         0.2252986111E-03      0.1337066165E-02

    ------------------------------------------------
       NWT REQUIRED            9 OUTER ITERATIONS 
       AND A TOTAL OF         14 INNER ITERATIONS.
    ------------------------------------------------

 NO OUTPUT CONTROL FOR STRESS PERIOD    5   TIME STEP   22
 
 SOLVING FOR HEAD 
                                                   Max.-Head-Change                         Max.-Flux-Residual
  Residual-Control   Outer-Iter.   Inner-Iter.     Column Row Layer    Maximum-Head-Change  Column Row Layer    Maximum-Flux-Residual          L2-NORM 
          0                 1           2             2    2     1       0.1026786729E-01       2    2    1         0.5349517655E+00      0.1865342375E+01
          0                 2           2             1    2     1       0.2357271450E-02       2    2    1         0.9302098566E-01      0.4680897137E+00
          0                 3           2             1    2     1       0.1058980321E-02       1    2    1         0.2751605030E-01      0.1731462716E+00
          0                 4           2             1    2     1       0.4755366046E-03       1    2    1         0.1235941472E-01      0.7476111880E-01
          0                 5           2             1    2     1       0.2135056554E-03       1    2    1         0.5549683461E-02      0.3327686237E-01
          0                 6           1             1    2     1       0.9585337711E-04       1    2    1         0.2491630615E-02      0.1488370607E-01
          0                 7           1             1    2     1       0.4303232657E-04       1    2    1         0.1118607748E-02      0.6662233288E-02
          0                 8           1             1    2     1       0.1931870905E-04       1    2    1         0.5021849851E-03      0.2982640280E-02
          0                 9           1             1    2     1       0.8672808770E-05       1    2    1         0.2254480128E-03      0.1335406162E-02

    ------------------------------------------------
       NWT REQUIRED            9 OUTER ITERATIONS 
       AND A TOTAL OF         14 INNER ITERATIONS.
    ------------------------------------------------

 NO OUTPUT CONTROL FOR STRESS PERIOD    5   TIME STEP   23
 
 SOLVING FOR HEAD 
                                                   Max.-Head-Change                         Max.-Flux-Residual
  Residual-Control   Outer-Iter.   Inner-Iter.     Column Row Layer    Maximum-Head-Change  Column Row Layer    Maximum-Flux-Residual          L2-NORM 
          0                 1           2             2    2     1       0.1022877941E-01       2    2    1         0.5328959693E+00      0.1862158022E+01
          0                 2           2             1    2     1       0.2358822193E-02       2    2    1         0.9266880732E-01      0.4675145581E+00
          0                 3           2             1    2     1       0.1059674317E-02       1    2    1         0.2753412957E-01      0.1729326007E+00
          0                 4           2             1    2     1       0.4758476085E-03       1    2    1         0.1236750970E-01      0.7466855940E-01
          0                 5           2             1    2     1       0.2136451001E-03       1    2    1         0.5553311806E-02      0.3323558516E-01
          0                 6           1             1    2     1       0.9591591262E-04       1    2    1         0.2493257571E-02      0.1486522031E-01
          0                 7           1             1    2     1       0.4306037278E-04       1    2    1         0.1119337384E-02      0.6653949778E-02
          0                 8           1             1    2     1       0.1933128788E-04       1    2    1         0.5025122269E-03      0.2978928506E-02
          0                 9           1             1    2     1       0.8678450525E-05       1    2    1         0.2255947858E-03      0.1333742652E-02

    ------------------------------------------------
       NWT REQUIRED            9 OUTER ITERATIONS 
       AND A TOTAL OF         14 INNER ITERATIONS.
    ------------------------------------------------

 NO OUTPUT CONTROL FOR STRESS PERIOD    5   TIME STEP   24
 
 SOLVING FOR HEAD 
                                                   Max.-Head-Change                         Max.-Flux-Residual
  Residual-Control   Outer-Iter.   Inner-Iter.     Column Row Layer    Maximum-Head-Change  Column Row Layer    Maximum-Flux-Residual          L2-NORM 
          0                 1           2             2    2     1       0.1019031139E-01       2    2    1         0.5308728470E+00      0.1859080838E+01
          0                 2           2             2    3     1       0.2360694443E-02       2    2    1         0.9232220662E-01      0.4669402027E+00
          0                 3           2             1    2     1       0.1060356113E-02       1    2    1         0.2755189140E-01      0.1727180522E+00
          0                 4           2             1    2     1       0.4761531376E-03       1    2    1         0.1237546234E-01      0.7457552977E-01
          0                 5           2             1    2     1       0.2137820871E-03       1    2    1         0.5556876267E-02      0.3319409691E-01
          0                 6           1             1    2     1       0.9597734440E-04       1    2    1         0.2494855848E-02      0.1484664146E-01
          0                 7           1             1    2     1       0.4308792401E-04       1    2    1         0.1120054148E-02      0.6645625970E-02
          0                 8           1             1    2     1       0.1934364437E-04       1    2    1         0.5028336814E-03      0.2975199079E-02
          0                 9           1             1    2     1       0.8683992235E-05       1    2    1         0.2257389526E-03      0.1332071643E-02

    ------------------------------------------------
       NWT REQUIRED            9 OUTER ITERATIONS 
       AND A TOTAL OF         14 INNER ITERATIONS.
    ------------------------------------------------

 NO OUTPUT CONTROL FOR STRESS PERIOD    5   TIME STEP   25
 
 SOLVING FOR HEAD 
                                                   Max.-Head-Change                         Max.-Flux-Residual
  Residual-Control   Outer-Iter.   Inner-Iter.     Column Row Layer    Maximum-Head-Change  Column Row Layer    Maximum-Flux-Residual          L2-NORM 
          0                 1           2             2    2     1       0.1015253724E-01       2    2    1         0.5288863014E+00      0.1856131061E+01
          0                 2           2             2    3     1       0.2365342459E-02       2    2    1         0.9198184918E-01      0.4663808171E+00
          0                 3           2             1    2     1       0.1061025915E-02       2    3    1         0.2758796496E-01      0.1725045560E+00
          0                 4           2             1    2     1       0.4764532864E-03       1    2    1         0.1238327506E-01      0.7448254484E-01
          0                 5           2             1    2     1       0.2139166586E-03       1    2    1         0.5560377936E-02      0.3315260484E-01
          0                 6           1             1    2     1       0.9603769119E-04       1    2    1         0.2496425936E-02      0.1482806132E-01
          0                 7           1             1    2     1       0.4311498802E-04       1    2    1         0.1120758261E-02      0.6637301399E-02
          0                 8           1             1    2     1       0.1935578276E-04       1    2    1         0.5031494642E-03      0.2971469858E-02
          0                 9           1             1    2     1       0.8689435902E-05       1    2    1         0.2258805734E-03      0.1330405270E-02

    ------------------------------------------------
       NWT REQUIRED            9 OUTER ITERATIONS 
       AND A TOTAL OF         14 INNER ITERATIONS.
    ------------------------------------------------

 NO OUTPUT CONTROL FOR STRESS PERIOD    5   TIME STEP   26
 
 SOLVING FOR HEAD 
                                                   Max.-Head-Change                         Max.-Flux-Residual
  Residual-Control   Outer-Iter.   Inner-Iter.     Column Row Layer    Maximum-Head-Change  Column Row Layer    Maximum-Flux-Residual          L2-NORM 
          0                 1           2             2    2     1       0.1011544191E-01       2    2    1         0.5269355406E+00      0.1853250719E+01
          0                 2           2             2    3     1       0.2369727331E-02       2    2    1         0.9164759966E-01      0.4658165360E+00
          0                 3           2             1    2     1       0.1061683901E-02       2    3    1         0.2763890520E-01      0.1722915556E+00
          0                 4           2             1    2     1       0.4767481330E-03       1    2    1         0.1239094990E-01      0.7439260911E-01
          0                 5           2             1    2     1       0.2140488501E-03       1    2    1         0.5563817733E-02      0.3311116940E-01
          0                 6           1             1    2     1       0.9609696976E-04       1    2    1         0.2497968247E-02      0.1480947996E-01
          0                 7           1             1    2     1       0.4314157233E-04       1    2    1         0.1121449897E-02      0.6628978345E-02
          0                 8           1             1    2     1       0.1936770480E-04       1    2    1         0.5034596389E-03      0.2967741084E-02
          0                 9           1             1    2     1       0.8694783026E-05       1    2    1         0.2260196826E-03      0.1328731175E-02

    ------------------------------------------------
       NWT REQUIRED            9 OUTER ITERATIONS 
       AND A TOTAL OF         14 INNER ITERATIONS.
    ------------------------------------------------

 NO OUTPUT CONTROL FOR STRESS PERIOD    5   TIME STEP   27
 
 SOLVING FOR HEAD 
                                                   Max.-Head-Change                         Max.-Flux-Residual
  Residual-Control   Outer-Iter.   Inner-Iter.     Column Row Layer    Maximum-Head-Change  Column Row Layer    Maximum-Flux-Residual          L2-NORM 
          0                 1           2             2    2     1       0.1007892354E-01       2    2    1         0.5250151883E+00      0.1850531930E+01
          0                 2           2             2    3     1       0.2373965169E-02       2    2    1         0.9131854215E-01      0.4652604875E+00
          0                 3           2             1    2     1       0.1062330229E-02       2    3    1         0.2768813584E-01      0.1720780533E+00
          0                 4           2             1    2     1       0.4770377486E-03       1    2    1         0.1239848874E-01      0.7429651322E-01
          0                 5           2             1    2     1       0.2141786937E-03       1    2    1         0.5567196504E-02      0.3306956084E-01
          0                 6           1             1    2     1       0.9615519411E-04       1    2    1         0.2499483161E-02      0.1479087621E-01
          0                 7           1             1    2     1       0.4316768342E-04       1    2    1         0.1122129236E-02      0.6620645768E-02
          0                 8           1             1    2     1       0.1937941475E-04       1    2    1         0.5037642972E-03      0.2964008787E-02
          0                 9           1             1    2     1       0.8700034858E-05       1    2    1         0.2261563166E-03      0.1327059414E-02

    ------------------------------------------------
       NWT REQUIRED            9 OUTER ITERATIONS 
       AND A TOTAL OF         14 INNER ITERATIONS.
    ------------------------------------------------

 NO OUTPUT CONTROL FOR STRESS PERIOD    5   TIME STEP   28
 
 SOLVING FOR HEAD 
                                                   Max.-Head-Change                         Max.-Flux-Residual
  Residual-Control   Outer-Iter.   Inner-Iter.     Column Row Layer    Maximum-Head-Change  Column Row Layer    Maximum-Flux-Residual          L2-NORM 
          0                 1           2             2    2     1       0.9495646839E-02       2    2    1         0.4944870450E+00      0.1814587831E+01
          0                 2           2             2    3     1       0.2375206292E-02       2    2    1         0.8604837529E-01      0.4609122866E+00
          0                 3           2             1    2     1       0.1062702523E-02       2    3    1         0.2770080599E-01      0.1715226192E+00
          0                 4           2             1    2     1       0.4771985297E-03       1    2    1         0.1240277439E-01      0.7416232884E-01
          0                 5           2             1    2     1       0.2142496892E-03       1    2    1         0.5569062186E-02      0.3301760996E-01
          0                 6           1             1    2     1       0.9618682415E-04       1    2    1         0.2500309660E-02      0.1476820522E-01
          0                 7           1             1    2     1       0.4318182445E-04       1    2    1         0.1122497927E-02      0.6610553346E-02
          0                 8           1             1    2     1       0.1938574531E-04       1    2    1         0.5039292120E-03      0.2959502573E-02
          0                 9           1             1    2     1       0.8702870366E-05       1    2    1         0.2262301599E-03      0.1325046469E-02

    ------------------------------------------------
       NWT REQUIRED            9 OUTER ITERATIONS 
       AND A TOTAL OF         14 INNER ITERATIONS.
    ------------------------------------------------

 NO OUTPUT CONTROL FOR STRESS PERIOD    5   TIME STEP   29
 
 SOLVING FOR HEAD 
                                                   Max.-Head-Change                         Max.-Flux-Residual
  Residual-Control   Outer-Iter.   Inner-Iter.     Column Row Layer    Maximum-Head-Change  Column Row Layer    Maximum-Flux-Residual          L2-NORM 
          0                 1           2             2   13     1      -0.1610007287E-01       4   13    1        -0.9257546120E+00      0.2256254256E+01
          0                 2           2             1    2     1       0.2362428967E-02       4   13    1         0.9243052193E-01      0.4602953394E+00
          0                 3           2             1    2     1       0.1060970811E-02       1    2    1         0.2757317048E-01      0.1695637731E+00
          0                 4           2             1    2     1       0.4763725845E-03       1    2    1         0.1238210573E-01      0.7378557845E-01
          0                 5           2             1    2     1       0.2138703866E-03       1    2    1         0.5559343292E-02      0.3289756066E-01
          0                 6           1             1    2     1       0.9601502588E-04       1    2    1         0.2495869125E-02      0.1471829500E-01
          0                 7           1             1    2     1       0.4310441658E-04       1    2    1         0.1120490513E-02      0.6588637412E-02
          0                 8           1             1    2     1       0.1935093760E-04       1    2    1         0.5030253917E-03      0.2949791380E-02
          0                 9           1             1    2     1       0.8687229922E-05       1    2    1         0.2258238504E-03      0.1320738675E-02

    ------------------------------------------------
       NWT REQUIRED            9 OUTER ITERATIONS 
       AND A TOTAL OF         14 INNER ITERATIONS.
    ------------------------------------------------

 NO OUTPUT CONTROL FOR STRESS PERIOD    5   TIME STEP   30



 STREAM LISTING     PERIOD      5   STEP       30

 LAYER ROW COL. STREAM  RCH.  FLOW INTO     FLOW TO   FLOW OUT OF   OVRLND.     DIRECT     STREAM       STREAM     STREAM     STREAM   STREAMBED  STREAMBED
                SEG.NO.  NO.  STRM. RCH.    AQUIFER    STRM. RCH.    RUNOFF     PRECIP       ET          HEAD       DEPTH      WIDTH   CONDCTNC.   GRADIENT

   1    1    1     1     1    2.8000E+01  2.5860E-01   2.7741E+01  0.000E+00  0.000E+00  0.000E+00  1.09427E+03  1.221E+00  1.361E+01  6.126E-02  1.407E+00
   1    2    2     1     2    2.7741E+01  4.0002E-01   2.7341E+01  0.000E+00  0.000E+00  0.000E+00  1.08928E+03  1.217E+00  1.355E+01  9.487E-02  1.406E+00
   1    3    3     1     3    2.7341E+01  3.4070E-01   2.7001E+01  0.000E+00  0.000E+00  0.000E+00  1.08363E+03  1.212E+00  1.348E+01  8.090E-02  1.404E+00
   1    3    4     1     4    2.7001E+01  3.1335E-01   2.6687E+01  0.000E+00  0.000E+00  0.000E+00  1.07861E+03  1.207E+00  1.342E+01  7.448E-02  1.402E+00
   1    4    5     2     1    2.4687E+01  3.2711E-01   2.4360E+01  0.000E+00  0.000E+00  0.000E+00  1.07313E+03  1.194E+00  1.200E+01  7.800E-02  1.398E+00
   1    5    6     2     2    2.4360E+01  2.5111E-01   2.4109E+01  0.000E+00  0.000E+00  0.000E+00  1.06769E+03  1.185E+00  1.200E+01  6.000E-02  1.395E+00
   1    6    6     2     3    2.4109E+01  2.5067E-01   2.3858E+01  0.000E+00  0.000E+00  0.000E+00  1.06297E+03  1.178E+00  1.200E+01  6.000E-02  1.393E+00
   1    7    6     2     4    2.3858E+01  2.5023E-01   2.3608E+01  0.000E+00  0.000E+00  0.000E+00  1.05825E+03  1.170E+00  1.200E+01  6.000E-02  1.390E+00
   1    8    6     2     5    2.3608E+01  2.4978E-01   2.3358E+01  0.000E+00  0.000E+00  0.000E+00  1.05352E+03  1.163E+00  1.200E+01  6.000E-02  1.388E+00
   1    3    5     3     1    2.0000E+00  2.8252E-01   1.7175E+00  0.000E+00  0.000E+00  0.000E+00  1.07555E+03  1.909E+00  9.636E+00  7.227E-02  1.955E+00
   1    3    6     3     2    1.7175E+00  2.4905E-01   1.4684E+00  0.000E+00  0.000E+00  0.000E+00  1.07264E+03  1.727E+00  8.909E+00  6.682E-02  1.864E+00
   1    3    7     3     3    1.4684E+00  1.9718E-01   1.2712E+00  0.000E+00  0.000E+00  0.000E+00  1.06987E+03  1.555E+00  8.218E+00  5.547E-02  1.777E+00
   1    4    8     3     4    1.2712E+00  2.2567E-01   1.0456E+00  0.000E+00  0.000E+00  0.000E+00  1.06682E+03  1.364E+00  7.455E+00  6.709E-02  1.682E+00
   1    5    8     3     5    1.0456E+00  1.5790E-01   8.8768E-01  0.000E+00  0.000E+00  0.000E+00  1.06362E+03  1.164E+00  6.655E+00  4.991E-02  1.582E+00
   1    6    8     3     6    8.8768E-01  5.5980E-02   8.3170E-01  0.000E+00  0.000E+00  0.000E+00  1.06158E+03  1.036E+00  6.145E+00  1.844E-02  1.518E+00
   1    5   10     4     1    1.0000E+01  9.0919E-02   9.9091E+00  0.000E+00  0.000E+00  0.000E+00  1.07836E+03  6.368E-01  1.000E+01  2.500E-02  1.212E+00
   1    5    9     4     2    9.9091E+00  1.8158E-01   9.7275E+00  0.000E+00  0.000E+00  0.000E+00  1.07154E+03  6.315E-01  1.000E+01  5.000E-02  1.211E+00
   1    6    8     4     3    9.7275E+00  1.2689E-01   9.6006E+00  0.000E+00  0.000E+00  0.000E+00  1.06381E+03  6.256E-01  1.000E+01  3.500E-02  1.209E+00
   1    6    8     5     1    1.0432E+01  2.2686E-01   1.0205E+01  0.000E+00  0.000E+00  0.000E+00  1.05868E+03  6.790E-01  1.542E+01  6.166E-02  1.226E+00
   1    7    7     5     2    1.0205E+01  2.7894E-01   9.9265E+00  0.000E+00  0.000E+00  0.000E+00  1.05417E+03  6.732E-01  1.519E+01  7.594E-02  1.224E+00
   1    8    7     5     3    9.9265E+00  1.9221E-01   9.7343E+00  0.000E+00  0.000E+00  0.000E+00  1.04992E+03  6.676E-01  1.497E+01  5.241E-02  1.223E+00
   1    8    6     5     4    9.7343E+00  1.3577E-01   9.5985E+00  0.000E+00  0.000E+00  0.000E+00  1.04691E+03  6.637E-01  1.482E+01  3.706E-02  1.221E+00
   1    9    6     6     1    3.2957E+01  2.6627E-01   3.2691E+01  0.000E+00  0.000E+00  0.000E+00  1.04417E+03  1.438E+00  1.200E+01  6.000E-02  1.479E+00
   1   10    7     6     2    3.2691E+01  2.6584E-01   3.2425E+01  0.000E+00  0.000E+00  0.000E+00  1.03961E+03  1.431E+00  1.200E+01  6.000E-02  1.477E+00
   1   11    7     6     3    3.2425E+01  2.6542E-01   3.2159E+01  0.000E+00  0.000E+00  0.000E+00  1.03506E+03  1.424E+00  1.200E+01  6.000E-02  1.475E+00
   1   12    7     6     4    3.2159E+01  2.6500E-01   3.1894E+01  0.000E+00  0.000E+00  0.000E+00  1.03051E+03  1.417E+00  1.200E+01  6.000E-02  1.472E+00
   1   13    7     6     5    3.1894E+01 -3.4291E-02   3.1929E+01  0.000E+00  0.000E+00  0.000E+00  1.02732E+03  1.414E+00  1.200E+01  2.400E-01 -4.763E-02
   1   14    9     7     1    1.5000E+02  1.1833E+00   1.4882E+02  0.000E+00  0.000E+00  0.000E+00  1.03987E+03  2.288E+00  5.530E+01  5.593E-01  7.052E-01
   1   13    8     7     2    1.4882E+02  1.6332E+00   1.4718E+02  0.000E+00  0.000E+00  0.000E+00  1.03478E+03  2.281E+00  5.526E+01  6.148E-01  8.854E-01
   1   13    7     7     3    1.4718E+02  1.2438E+00   1.4594E+02  0.000E+00  0.000E+00  0.000E+00  1.02969E+03  2.273E+00  5.523E+01  5.586E-01  7.422E-01
   1   13    6     8     1    1.7787E+02  7.3071E-01   1.7714E+02  0.000E+00  0.000E+00  0.000E+00  1.02488E+03  3.000E+00  4.351E+01  4.433E-01  5.494E-01
   1   13    5     8     2    1.7714E+02 -6.4179E-02   1.7720E+02  0.000E+00  0.000E+00  0.000E+00  1.01862E+03  2.998E+00  4.348E+01  4.430E+00 -4.829E-03
   1   13    4     8     3    1.7720E+02 -3.6216E+00   1.8082E+02  0.000E+00  0.000E+00  0.000E+00  1.01238E+03  3.010E+00  4.364E+01  4.448E+00 -2.714E-01
   1   13    3     8     4    1.8082E+02 -4.6214E+00   1.8544E+02  0.000E+00  0.000E+00  0.000E+00  1.00616E+03  3.036E+00  4.402E+01  4.486E+00 -3.434E-01
   1   13    2     8     5    1.8544E+02 -3.5191E+00   1.8896E+02  0.000E+00  0.000E+00  0.000E+00  9.99936E+02  3.061E+00  4.438E+01  4.523E+00 -2.594E-01
   1   13    1     8     6    1.8896E+02 -2.4591E+00   1.9142E+02  0.000E+00  0.000E+00  0.000E+00  9.94954E+02  3.079E+00  4.465E+01  2.730E+00 -3.003E-01
   1    6    8     9     1    0.0000E+00  0.0000E+00   0.0000E+00  0.000E+00  0.000E+00  0.000E+00  1.07850E+03  0.000E+00  4.000E+00  0.000E+00  1.000E+00





UNSATURATED ZONE PACKAGE VOLUMETRIC BUDGET FOR  TIME STEP    30 STRESS PERIOD    5
  ------------------------------------------------------------------------------



     CUMULATIVE VOLUMES      L**3       RATES FOR THIS TIME STEP      L**3/T
     ------------------                 ------------------------

           IN:                                      IN:
           ---                                      ---
        INFILTRATION =      151807.6534          INFILTRATION =       0.0000E+00

          OUT:                                     OUT:
          ----                                     ----
              UZF ET =    40106416.7699                UZF ET =          14.2500
        UZF RECHARGE =   283520307.5163          UZF RECHARGE =          25.3433

            IN - OUT =  -323474916.6328              IN - OUT =         -39.5932

          STORAGE:                                 STORAGE:
          --------                                 --------
      STORAGE CHANGE =  -323454511.1677        STORAGE CHANGE =         -39.5932

 PERCENT DISCREPANCY IS DIFFERENCE BETWEEN IN-OUT MINUS CHANGE IN STORAGE
 DIVIDED BY THE AVERAGE OF IN AND OUT TIMES 100

 PERCENT DISCREPANCY =          -0.00     PERCENT DISCREPANCY =          -0.00






1
  VOLUMETRIC BUDGET FOR ENTIRE MODEL AT END OF TIME STEP   30, STRESS PERIOD   5
  ------------------------------------------------------------------------------

     CUMULATIVE VOLUMES      L**3       RATES FOR THIS TIME STEP      L**3/T
     ------------------                 ------------------------

           IN:                                      IN:
           ---                                      ---
             STORAGE     =      277748.3750               STORAGE     =           2.9522
       CONSTANT HEAD     =           0.0000         CONSTANT HEAD     =           0.0000
               WELLS     =           0.0000                 WELLS     =           0.0000
     HEAD DEP BOUNDS     =     2966820.7500       HEAD DEP BOUNDS     =           0.2754
      STREAM LEAKAGE     =   122404368.0000        STREAM LEAKAGE     =          10.8965
        UZF RECHARGE     =   283520352.0000          UZF RECHARGE     =          25.3433
               GW ET     =           0.0000                 GW ET     =           0.0000
     SURFACE LEAKAGE     =           0.0000       SURFACE LEAKAGE     =           0.0000
    SUPPLEMENTARY WELLS  =           0.0000      SUPPLEMENTARY WELLS  =           0.0000

                TOTAL IN =   409169280.0000                  TOTAL IN =          39.4674

          OUT:                                     OUT:
          ----                                     ----
             STORAGE     =   289380384.0000               STORAGE     =          24.5948
       CONSTANT HEAD     =           0.0000         CONSTANT HEAD     =           0.0000
               WELLS     =           0.0000                 WELLS     =           0.0000
     HEAD DEP BOUNDS     =     3089952.5000       HEAD DEP BOUNDS     =           0.2985
      STREAM LEAKAGE     =   116180088.0000        STREAM LEAKAGE     =          14.3197
        UZF RECHARGE     =           0.0000          UZF RECHARGE     =           0.0000
               GW ET     =      435447.2812                 GW ET     =           0.2500
     SURFACE LEAKAGE     =           0.0000       SURFACE LEAKAGE     =           0.0000
    SUPPLEMENTARY WELLS  =       31277.1836      SUPPLEMENTARY WELLS  =           0.0000

               TOTAL OUT =   409117152.0000                 TOTAL OUT =          39.4630

                IN - OUT =       52128.0000                  IN - OUT =       4.4556E-03

     PERCENT DISCREPANCY =           0.01         PERCENT DISCREPANCY =           0.01






         TIME SUMMARY AT END OF TIME STEP   30 IN STRESS PERIOD    5
                    SECONDS     MINUTES      HOURS       DAYS        YEARS
                    -----------------------------------------------------------
   TIME STEP LENGTH  87600.      1460.0      24.333      1.0139     2.77588E-03
 STRESS PERIOD TIME 2.62800E+06  43800.      730.00      30.417     8.32763E-02
         TOTAL TIME 1.05984E+07 1.76640E+05  2944.0      122.67     0.33584    
1
1
                            STRESS PERIOD NO.    6, LENGTH =   2628000.    
                            -----------------------------------------------

                              NUMBER OF TIME STEPS =    30

                               MULTIPLIER FOR DELT =     1.000

                            INITIAL TIME STEP SIZE =   87600.00    

 WELL NO.  LAYER   ROW   COL   STRESS RATE         
 --------------------------------------------------
      1      1      6      4       0.000    
      2      1      6      7       0.000    
      3      1      7      4       0.000    
      4      1      7      5       0.000    
      5      1      8      4       0.000    
      6      1      8      5       0.000    
      7      1      9      4       0.000    
      8      1      9      5       0.000    
      9      1     10      4       0.000    
     10      1     10      5       0.000    

     10 WELLS

 REUSING NON-PARAMETER GHB CELLS FROM LAST STRESS PERIOD

      2 GHB CELLS

 REUSING STREAM SEGMENT DATA FROM LAST STRESS PERIOD



            AREAL INFILTRATION RATE
 READING ON UNIT   19 WITH FORMAT: (10F4.0)            

            1           2           3           4           5           6           7           8           9          10
 ........................................................................................................................
   1    0.000       0.000       0.000       0.000       0.000       0.000       0.000       0.000       0.000       0.000    
   2    0.000       0.000       0.000       0.000       0.000       0.000       0.000       0.000       0.000       0.000    
   3    0.000       0.000       0.000       0.000       0.000       0.000       0.000       0.000       0.000       0.000    
   4    0.000       0.000       0.000       0.000       0.000       0.000       0.000       0.000       0.000       0.000    
   5    0.000       0.000       0.000       0.000       0.000       0.000       0.000       0.000       0.000       0.000    
   6    0.000       0.000       0.000       0.000       0.000       0.000       0.000       0.000       0.000       0.000    
   7    0.000       0.000       0.000       0.000       0.000       0.000       0.000       0.000       0.000       0.000    
   8    0.000       0.000       0.000       0.000       0.000       0.000       0.000       0.000       0.000       0.000    
   9    0.000       0.000       0.000       0.000       0.000       0.000       0.000       0.000       0.000       0.000    
  10    0.000       0.000       0.000       0.000       0.000       0.000       0.000       0.000       0.000       0.000    
  11    0.000       0.000       0.000       0.000       0.000       0.000       0.000       0.000       0.000       0.000    
  12    0.000       0.000       0.000       0.000       0.000       0.000       0.000       0.000       0.000       0.000    
  13    0.000       0.000       0.000       0.000       0.000       0.000       0.000       0.000       0.000       0.000    
  14    0.000       0.000       0.000       0.000       0.000       0.000       0.000       0.000       0.000       0.000    
  15    0.000       0.000       0.000       0.000       0.000       0.000       0.000       0.000       0.000       0.000    

                  ET RATE =  1.000000E-08

 USING ET EXTINCTION DEPTH FROM PREVIOUS STRESS PERIOD. CURRENT PERIOD IS:       6

 USING EXTINCTION WATER CONTENT FROM PREVIOUS STRESS PERIOD. CURRENT PERIOD IS:       6

 PROCESSING AGO STRESS PERIOD DATA

 READING AGO STRESS PERIOD DATA

 READING IRRIGATION STREAM

 READING IRRIGATION WELL

 READING SUPPLEMENTAL WEL

 END PROCESSING AGO STRESS PERIOD DATA OPTIONS
 
 SOLVING FOR HEAD 
                                                   Max.-Head-Change                         Max.-Flux-Residual
  Residual-Control   Outer-Iter.   Inner-Iter.     Column Row Layer    Maximum-Head-Change  Column Row Layer    Maximum-Flux-Residual          L2-NORM 
          0                 1           2             4   13     1      -0.1663809927E-01       4   13    1        -0.9586856935E+00      0.2261995595E+01
          0                 2           2             1    2     1       0.2359960960E-02       4   13    1         0.9509229751E-01      0.4615269531E+00
          0                 3           2             1    2     1       0.1059862692E-02       1    2    1         0.2754437114E-01      0.1691129643E+00
          0                 4           2             1    2     1       0.4758748861E-03       1    2    1         0.1236917349E-01      0.7357031140E-01
          0                 5           2             1    2     1       0.2136468238E-03       1    2    1         0.5553534666E-02      0.3280196519E-01
          0                 6           1             1    2     1       0.9591459879E-04       1    2    1         0.2493259889E-02      0.1467581945E-01
          0                 7           1             1    2     1       0.4305930230E-04       1    2    1         0.1119318398E-02      0.6569754542E-02
          0                 8           1             1    2     1       0.1933067111E-04       1    2    1         0.5024988525E-03      0.2941398535E-02
          0                 9           1             1    2     1       0.8678126131E-05       1    2    1         0.2255873181E-03      0.1317011031E-02

    ------------------------------------------------
       NWT REQUIRED            9 OUTER ITERATIONS 
       AND A TOTAL OF         14 INNER ITERATIONS.
    ------------------------------------------------

 NO OUTPUT CONTROL FOR STRESS PERIOD    6   TIME STEP    1
 
 SOLVING FOR HEAD 
                                                   Max.-Head-Change                         Max.-Flux-Residual
  Residual-Control   Outer-Iter.   Inner-Iter.     Column Row Layer    Maximum-Head-Change  Column Row Layer    Maximum-Flux-Residual          L2-NORM 
          0                 1           2             4   13     1      -0.1500542444E-01       4   13    1        -0.8644714223E+00      0.2164047337E+01
          0                 2           2             1    2     1       0.2357487433E-02       4   13    1         0.8573592994E-01      0.4560538111E+00
          0                 3           2             1    2     1       0.1058752087E-02       1    2    1         0.2751550728E-01      0.1685428541E+00
          0                 4           2             1    2     1       0.4753760704E-03       1    2    1         0.1235621220E-01      0.7335969855E-01
          0                 5           2             1    2     1       0.2134227596E-03       1    2    1         0.5547712986E-02      0.3270909577E-01
          0                 6           1             1    2     1       0.9581394560E-04       1    2    1         0.2490644784E-02      0.1463455250E-01
          0                 7           1             1    2     1       0.4301408723E-04       1    2    1         0.1118143657E-02      0.6551405318E-02
          0                 8           1             1    2     1       0.1931035934E-04       1    2    1         0.5019711327E-03      0.2933233686E-02
          0                 9           1             1    2     1       0.8669001580E-05       1    2    1         0.2253502543E-03      0.1313371471E-02

    ------------------------------------------------
       NWT REQUIRED            9 OUTER ITERATIONS 
       AND A TOTAL OF         14 INNER ITERATIONS.
    ------------------------------------------------

 NO OUTPUT CONTROL FOR STRESS PERIOD    6   TIME STEP    2
 
 SOLVING FOR HEAD 
                                                   Max.-Head-Change                         Max.-Flux-Residual
  Residual-Control   Outer-Iter.   Inner-Iter.     Column Row Layer    Maximum-Head-Change  Column Row Layer    Maximum-Flux-Residual          L2-NORM 
          0                 1           2             4   13     1      -0.1353450704E-01       4   13    1        -0.7796213428E+00      0.2078478085E+01
          0                 2           2             1    2     1       0.2355028330E-02       4   13    1         0.7731137845E-01      0.4513173283E+00
          0                 3           2             1    2     1       0.1057647946E-02       1    2    1         0.2748681163E-01      0.1680064950E+00
          0                 4           2             1    2     1       0.4748801554E-03       1    2    1         0.1234332632E-01      0.7315664641E-01
          0                 5           2             1    2     1       0.2131999975E-03       1    2    1         0.5541925163E-02      0.3261941586E-01
          0                 6           1             1    2     1       0.9571387817E-04       1    2    1         0.2488044892E-02      0.1459469213E-01
          0                 7           1             1    2     1       0.4296913477E-04       1    2    1         0.1116975740E-02      0.6533678707E-02
          0                 8           1             1    2     1       0.1929016587E-04       1    2    1         0.5014464781E-03      0.2925348888E-02
          0                 9           1             1    2     1       0.8659930052E-05       1    2    1         0.2251145633E-03      0.1309866284E-02

    ------------------------------------------------
       NWT REQUIRED            9 OUTER ITERATIONS 
       AND A TOTAL OF         14 INNER ITERATIONS.
    ------------------------------------------------

 NO OUTPUT CONTROL FOR STRESS PERIOD    6   TIME STEP    3
 
 SOLVING FOR HEAD 
                                                   Max.-Head-Change                         Max.-Flux-Residual
  Residual-Control   Outer-Iter.   Inner-Iter.     Column Row Layer    Maximum-Head-Change  Column Row Layer    Maximum-Flux-Residual          L2-NORM 
          0                 1           2             4   13     1      -0.1220857166E-01       4   13    1        -0.7031611960E+00      0.2003892881E+01
          0                 2           2             1    2     1       0.2352583413E-02       4   13    1         0.6972108959E-01      0.4472057992E+00
          0                 3           2             1    2     1       0.1056550162E-02       1    2    1         0.2745828141E-01      0.1675003529E+00
          0                 4           2             1    2     1       0.4743870938E-03       1    2    1         0.1233051463E-01      0.7296089425E-01
          0                 5           2             1    2     1       0.2129785171E-03       1    2    1         0.5536170636E-02      0.3253284796E-01
          0                 6           1             1    2     1       0.9561438575E-04       1    2    1         0.2485459942E-02      0.1455620400E-01
          0                 7           1             1    2     1       0.4292444043E-04       1    2    1         0.1115814535E-02      0.6516559350E-02
          0                 8           1             1    2     1       0.1927008796E-04       1    2    1         0.5009248402E-03      0.2917733377E-02
          0                 9           1             1    2     1       0.8650910798E-05       1    2    1         0.2248802355E-03      0.1306474445E-02

    ------------------------------------------------
       NWT REQUIRED            9 OUTER ITERATIONS 
       AND A TOTAL OF         14 INNER ITERATIONS.
    ------------------------------------------------

 NO OUTPUT CONTROL FOR STRESS PERIOD    6   TIME STEP    4
 
 SOLVING FOR HEAD 
                                                   Max.-Head-Change                         Max.-Flux-Residual
  Residual-Control   Outer-Iter.   Inner-Iter.     Column Row Layer    Maximum-Head-Change  Column Row Layer    Maximum-Flux-Residual          L2-NORM 
          0                 1           2             2   13     1      -0.1106888369E-01       4   13    1        -0.6342454966E+00      0.1957112483E+01
          0                 2           2             1    2     1       0.2350132402E-02       4   13    1         0.6288256869E-01      0.4443743807E+00
          0                 3           2             1    2     1       0.1055449634E-02       1    2    1         0.2742967997E-01      0.1670329341E+00
          0                 4           2             1    2     1       0.4738927993E-03       1    2    1         0.1231767090E-01      0.7277032653E-01
          0                 5           2             1    2     1       0.2127564828E-03       1    2    1         0.5530401718E-02      0.3244835079E-01
          0                 6           1             1    2     1       0.9551464522E-04       1    2    1         0.2482868538E-02      0.1451862631E-01
          0                 7           1             1    2     1       0.4287963503E-04       1    2    1         0.1114650436E-02      0.6499841114E-02
          0                 8           1             1    2     1       0.1924996027E-04       1    2    1         0.5004019006E-03      0.2910293041E-02
          0                 9           1             1    2     1       0.8641868783E-05       1    2    1         0.2246453171E-03      0.1303163236E-02

    ------------------------------------------------
       NWT REQUIRED            9 OUTER ITERATIONS 
       AND A TOTAL OF         14 INNER ITERATIONS.
    ------------------------------------------------

 OUTPUT CONTROL FOR STRESS PERIOD    6   TIME STEP    5
    PRINT BUDGET
    SAVE BUDGET
 UBUDSV SAVING "         STORAGE" ON UNIT102 AT TIME STEP     5, STRESS PERIOD    6
 UBUDSV SAVING "   CONSTANT HEAD" ON UNIT102 AT TIME STEP     5, STRESS PERIOD    6
 UBUDSV SAVING "FLOW RIGHT FACE " ON UNIT102 AT TIME STEP     5, STRESS PERIOD    6
 UBUDSV SAVING "FLOW FRONT FACE " ON UNIT102 AT TIME STEP     5, STRESS PERIOD    6

  HEAD DEP BOUNDS   PERIOD    6   STEP     5
 BOUNDARY      1   LAYER   1   ROW    13   COL     1   RATE   -0.297175    
 BOUNDARY      2   LAYER   1   ROW    14   COL     9   RATE    0.275238    



 STREAM LISTING     PERIOD      6   STEP        5

 LAYER ROW COL. STREAM  RCH.  FLOW INTO     FLOW TO   FLOW OUT OF   OVRLND.     DIRECT     STREAM       STREAM     STREAM     STREAM   STREAMBED  STREAMBED
                SEG.NO.  NO.  STRM. RCH.    AQUIFER    STRM. RCH.    RUNOFF     PRECIP       ET          HEAD       DEPTH      WIDTH   CONDCTNC.   GRADIENT

   1    1    1     1     1    2.8000E+01  2.5860E-01   2.7741E+01  0.000E+00  0.000E+00  0.000E+00  1.09427E+03  1.221E+00  1.361E+01  6.126E-02  1.407E+00
   1    2    2     1     2    2.7741E+01  4.0002E-01   2.7341E+01  0.000E+00  0.000E+00  0.000E+00  1.08928E+03  1.217E+00  1.355E+01  9.487E-02  1.406E+00
   1    3    3     1     3    2.7341E+01  3.4070E-01   2.7001E+01  0.000E+00  0.000E+00  0.000E+00  1.08363E+03  1.212E+00  1.348E+01  8.090E-02  1.404E+00
   1    3    4     1     4    2.7001E+01  3.1335E-01   2.6687E+01  0.000E+00  0.000E+00  0.000E+00  1.07861E+03  1.207E+00  1.342E+01  7.448E-02  1.402E+00
   1    4    5     2     1    2.4687E+01  3.2711E-01   2.4360E+01  0.000E+00  0.000E+00  0.000E+00  1.07313E+03  1.194E+00  1.200E+01  7.800E-02  1.398E+00
   1    5    6     2     2    2.4360E+01  2.5111E-01   2.4109E+01  0.000E+00  0.000E+00  0.000E+00  1.06769E+03  1.185E+00  1.200E+01  6.000E-02  1.395E+00
   1    6    6     2     3    2.4109E+01  2.5067E-01   2.3858E+01  0.000E+00  0.000E+00  0.000E+00  1.06297E+03  1.178E+00  1.200E+01  6.000E-02  1.393E+00
   1    7    6     2     4    2.3858E+01  2.5023E-01   2.3608E+01  0.000E+00  0.000E+00  0.000E+00  1.05825E+03  1.170E+00  1.200E+01  6.000E-02  1.390E+00
   1    8    6     2     5    2.3608E+01  2.4978E-01   2.3358E+01  0.000E+00  0.000E+00  0.000E+00  1.05352E+03  1.163E+00  1.200E+01  6.000E-02  1.388E+00
   1    3    5     3     1    2.0000E+00  2.8252E-01   1.7175E+00  0.000E+00  0.000E+00  0.000E+00  1.07555E+03  1.909E+00  9.636E+00  7.227E-02  1.955E+00
   1    3    6     3     2    1.7175E+00  2.4905E-01   1.4684E+00  0.000E+00  0.000E+00  0.000E+00  1.07264E+03  1.727E+00  8.909E+00  6.682E-02  1.864E+00
   1    3    7     3     3    1.4684E+00  1.9718E-01   1.2712E+00  0.000E+00  0.000E+00  0.000E+00  1.06987E+03  1.555E+00  8.218E+00  5.547E-02  1.777E+00
   1    4    8     3     4    1.2712E+00  2.2567E-01   1.0456E+00  0.000E+00  0.000E+00  0.000E+00  1.06682E+03  1.364E+00  7.455E+00  6.709E-02  1.682E+00
   1    5    8     3     5    1.0456E+00  1.5790E-01   8.8768E-01  0.000E+00  0.000E+00  0.000E+00  1.06362E+03  1.164E+00  6.655E+00  4.991E-02  1.582E+00
   1    6    8     3     6    8.8768E-01  5.5980E-02   8.3170E-01  0.000E+00  0.000E+00  0.000E+00  1.06158E+03  1.036E+00  6.145E+00  1.844E-02  1.518E+00
   1    5   10     4     1    1.0000E+01  9.0919E-02   9.9091E+00  0.000E+00  0.000E+00  0.000E+00  1.07836E+03  6.368E-01  1.000E+01  2.500E-02  1.212E+00
   1    5    9     4     2    9.9091E+00  1.8158E-01   9.7275E+00  0.000E+00  0.000E+00  0.000E+00  1.07154E+03  6.315E-01  1.000E+01  5.000E-02  1.211E+00
   1    6    8     4     3    9.7275E+00  1.2689E-01   9.6006E+00  0.000E+00  0.000E+00  0.000E+00  1.06381E+03  6.256E-01  1.000E+01  3.500E-02  1.209E+00
   1    6    8     5     1    1.0432E+01  2.2686E-01   1.0205E+01  0.000E+00  0.000E+00  0.000E+00  1.05868E+03  6.790E-01  1.542E+01  6.166E-02  1.226E+00
   1    7    7     5     2    1.0205E+01  2.7894E-01   9.9265E+00  0.000E+00  0.000E+00  0.000E+00  1.05417E+03  6.732E-01  1.519E+01  7.594E-02  1.224E+00
   1    8    7     5     3    9.9265E+00  1.9221E-01   9.7343E+00  0.000E+00  0.000E+00  0.000E+00  1.04992E+03  6.676E-01  1.497E+01  5.241E-02  1.223E+00
   1    8    6     5     4    9.7343E+00  1.3577E-01   9.5985E+00  0.000E+00  0.000E+00  0.000E+00  1.04691E+03  6.637E-01  1.482E+01  3.706E-02  1.221E+00
   1    9    6     6     1    3.2957E+01  2.6627E-01   3.2691E+01  0.000E+00  0.000E+00  0.000E+00  1.04417E+03  1.438E+00  1.200E+01  6.000E-02  1.479E+00
   1   10    7     6     2    3.2691E+01  2.6584E-01   3.2425E+01  0.000E+00  0.000E+00  0.000E+00  1.03961E+03  1.431E+00  1.200E+01  6.000E-02  1.477E+00
   1   11    7     6     3    3.2425E+01  2.6542E-01   3.2159E+01  0.000E+00  0.000E+00  0.000E+00  1.03506E+03  1.424E+00  1.200E+01  6.000E-02  1.475E+00
   1   12    7     6     4    3.2159E+01  2.6500E-01   3.1894E+01  0.000E+00  0.000E+00  0.000E+00  1.03051E+03  1.417E+00  1.200E+01  6.000E-02  1.472E+00
   1   13    7     6     5    3.1894E+01 -3.5314E-02   3.1930E+01  0.000E+00  0.000E+00  0.000E+00  1.02732E+03  1.414E+00  1.200E+01  2.400E-01 -4.905E-02
   1   14    9     7     1    1.5000E+02  1.1812E+00   1.4882E+02  0.000E+00  0.000E+00  0.000E+00  1.03987E+03  2.288E+00  5.530E+01  5.593E-01  7.040E-01
   1   13    8     7     2    1.4882E+02  1.6293E+00   1.4719E+02  0.000E+00  0.000E+00  0.000E+00  1.03478E+03  2.281E+00  5.526E+01  6.148E-01  8.833E-01
   1   13    7     7     3    1.4719E+02  1.2414E+00   1.4595E+02  0.000E+00  0.000E+00  0.000E+00  1.02969E+03  2.273E+00  5.523E+01  5.586E-01  7.408E-01
   1   13    6     8     1    1.7788E+02  7.3223E-01   1.7715E+02  0.000E+00  0.000E+00  0.000E+00  1.02488E+03  3.000E+00  4.351E+01  4.433E-01  5.505E-01
   1   13    5     8     2    1.7715E+02 -5.2334E-02   1.7720E+02  0.000E+00  0.000E+00  0.000E+00  1.01862E+03  2.998E+00  4.348E+01  4.430E+00 -3.938E-03
   1   13    4     8     3    1.7720E+02 -3.3481E+00   1.8055E+02  0.000E+00  0.000E+00  0.000E+00  1.01238E+03  3.009E+00  4.363E+01  4.446E+00 -2.510E-01
   1   13    3     8     4    1.8055E+02 -4.3586E+00   1.8490E+02  0.000E+00  0.000E+00  0.000E+00  1.00616E+03  3.033E+00  4.398E+01  4.482E+00 -3.242E-01
   1   13    2     8     5    1.8490E+02 -3.2647E+00   1.8817E+02  0.000E+00  0.000E+00  0.000E+00  9.99932E+02  3.057E+00  4.432E+01  4.517E+00 -2.409E-01
   1   13    1     8     6    1.8817E+02 -2.3747E+00   1.9054E+02  0.000E+00  0.000E+00  0.000E+00  9.94949E+02  3.074E+00  4.457E+01  2.725E+00 -2.905E-01
   1    6    8     9     1    0.0000E+00  0.0000E+00   0.0000E+00  0.000E+00  0.000E+00  0.000E+00  1.07850E+03  0.000E+00  4.000E+00  0.000E+00  1.000E+00



 UBDSV3 SAVING "     NETRECHARGE" ON UNIT 100 AT TIME STEP     5, STRESS PERIOD   6
 UBDSV3 SAVING "    NETDISCHARGE" ON UNIT 101 AT TIME STEP     5, STRESS PERIOD   6
 UBDSV3 SAVING "           GW ET" ON UNIT  61 AT TIME STEP     5, STRESS PERIOD   6
 UBDSV3 SAVING "    UZF RECHARGE" ON UNIT  61 AT TIME STEP     5, STRESS PERIOD   6
 UBDSV3 SAVING " SURFACE LEAKAGE" ON UNIT  61 AT TIME STEP     5, STRESS PERIOD   6
 UBDSV3 SAVING "       HORT+DUNN" ON UNIT  61 AT TIME STEP     5, STRESS PERIOD   6
 UBDSV3 SAVING "  STORAGE CHANGE" ON UNIT  61 AT TIME STEP     5, STRESS PERIOD   6


UNSATURATED ZONE PACKAGE VOLUMETRIC BUDGET FOR  TIME STEP     5 STRESS PERIOD    6
  ------------------------------------------------------------------------------



     CUMULATIVE VOLUMES      L**3       RATES FOR THIS TIME STEP      L**3/T
     ------------------                 ------------------------

           IN:                                      IN:
           ---                                      ---
        INFILTRATION =      151807.6534          INFILTRATION =       0.0000E+00

          OUT:                                     OUT:
          ----                                     ----
              UZF ET =    52581799.2718                UZF ET =          28.4130
        UZF RECHARGE =   294571159.6806          UZF RECHARGE =          25.1615

            IN - OUT =  -347001151.2990              IN - OUT =         -53.5745

          STORAGE:                                 STORAGE:
          --------                                 --------
      STORAGE CHANGE =  -346980706.1609        STORAGE CHANGE =         -53.5744

 PERCENT DISCREPANCY IS DIFFERENCE BETWEEN IN-OUT MINUS CHANGE IN STORAGE
 DIVIDED BY THE AVERAGE OF IN AND OUT TIMES 100

 PERCENT DISCREPANCY =          -0.00     PERCENT DISCREPANCY =          -0.00






1
  VOLUMETRIC BUDGET FOR ENTIRE MODEL AT END OF TIME STEP    5, STRESS PERIOD   6
  ------------------------------------------------------------------------------

     CUMULATIVE VOLUMES      L**3       RATES FOR THIS TIME STEP      L**3/T
     ------------------                 ------------------------

           IN:                                      IN:
           ---                                      ---
             STORAGE     =     1391177.7500               STORAGE     =           2.2155
       CONSTANT HEAD     =           0.0000         CONSTANT HEAD     =           0.0000
               WELLS     =           0.0000                 WELLS     =           0.0000
     HEAD DEP BOUNDS     =     3087398.7500       HEAD DEP BOUNDS     =           0.2752
      STREAM LEAKAGE     =   127175264.0000        STREAM LEAKAGE     =          10.8898
        UZF RECHARGE     =   294571200.0000          UZF RECHARGE     =          25.1615
               GW ET     =           0.0000                 GW ET     =           0.0000
     SURFACE LEAKAGE     =           0.0000       SURFACE LEAKAGE     =           0.0000
    SUPPLEMENTARY WELLS  =           0.0000      SUPPLEMENTARY WELLS  =           0.0000

                TOTAL IN =   426225024.0000                  TOTAL IN =          38.5420

          OUT:                                     OUT:
          ----                                     ----
             STORAGE     =   300050176.0000               STORAGE     =          24.2197
       CONSTANT HEAD     =           0.0000         CONSTANT HEAD     =           0.0000
               WELLS     =           0.0000                 WELLS     =           0.0000
     HEAD DEP BOUNDS     =     3220346.0000       HEAD DEP BOUNDS     =           0.2972
      STREAM LEAKAGE     =   122207112.0000        STREAM LEAKAGE     =          13.4337
        UZF RECHARGE     =           0.0000          UZF RECHARGE     =           0.0000
               GW ET     =      662066.2500                 GW ET     =           0.5870
     SURFACE LEAKAGE     =           0.0000       SURFACE LEAKAGE     =           0.0000
    SUPPLEMENTARY WELLS  =       31277.1836      SUPPLEMENTARY WELLS  =           0.0000

               TOTAL OUT =   426170976.0000                 TOTAL OUT =          38.5376

                IN - OUT =       54048.0000                  IN - OUT =       4.3793E-03

     PERCENT DISCREPANCY =           0.01         PERCENT DISCREPANCY =           0.01






         TIME SUMMARY AT END OF TIME STEP    5 IN STRESS PERIOD    6
                    SECONDS     MINUTES      HOURS       DAYS        YEARS
                    -----------------------------------------------------------
   TIME STEP LENGTH  87600.      1460.0      24.333      1.0139     2.77588E-03
 STRESS PERIOD TIME 4.38000E+05  7300.0      121.67      5.0694     1.38794E-02
         TOTAL TIME 1.10364E+07 1.83940E+05  3065.7      127.74     0.34972    
1
 
 SOLVING FOR HEAD 
                                                   Max.-Head-Change                         Max.-Flux-Residual
  Residual-Control   Outer-Iter.   Inner-Iter.     Column Row Layer    Maximum-Head-Change  Column Row Layer    Maximum-Flux-Residual          L2-NORM 
          0                 1           2             1   13     1      -0.1089452341E-01       1   13    1        -0.5939738031E+00      0.1943248562E+01
          0                 2           2             1    2     1       0.2347715355E-02       1    2    1         0.6099025382E-01      0.4429842622E+00
          0                 3           2             1    2     1       0.1054364343E-02       1    2    1         0.2740147477E-01      0.1666040880E+00
          0                 4           2             1    2     1       0.4734053442E-03       1    2    1         0.1230500496E-01      0.7258392365E-01
          0                 5           2             1    2     1       0.2125375196E-03       1    2    1         0.5524712620E-02      0.3236550343E-01
          0                 6           1             1    2     1       0.9541628355E-04       1    2    1         0.2480312979E-02      0.1448176699E-01
          0                 7           1             1    2     1       0.4283544917E-04       1    2    1         0.1113502436E-02      0.6483439894E-02
          0                 8           1             1    2     1       0.1923011071E-04       1    2    1         0.4998861877E-03      0.2902993997E-02
          0                 9           1             1    2     1       0.8632952074E-05       1    2    1         0.2244136470E-03      0.1299914246E-02

    ------------------------------------------------
       NWT REQUIRED            9 OUTER ITERATIONS 
       AND A TOTAL OF         14 INNER ITERATIONS.
    ------------------------------------------------

 NO OUTPUT CONTROL FOR STRESS PERIOD    6   TIME STEP    6
 
 SOLVING FOR HEAD 
                                                   Max.-Head-Change                         Max.-Flux-Residual
  Residual-Control   Outer-Iter.   Inner-Iter.     Column Row Layer    Maximum-Head-Change  Column Row Layer    Maximum-Flux-Residual          L2-NORM 
          0                 1           2             1   13     1      -0.1039603059E-01       1   13    1        -0.5668957381E+00      0.1890528340E+01
          0                 2           2             1    2     1       0.2345311919E-02       1    2    1         0.6092776238E-01      0.4399821644E+00
          0                 3           2             1    2     1       0.1053285156E-02       1    2    1         0.2737342834E-01      0.1661513896E+00
          0                 4           2             1    2     1       0.4729206292E-03       1    2    1         0.1229241024E-01      0.7240195519E-01
          0                 5           2             1    2     1       0.2123197869E-03       1    2    1         0.5519055494E-02      0.3228486559E-01
          0                 6           1             1    2     1       0.9531847437E-04       1    2    1         0.2477771771E-02      0.1444589739E-01
          0                 7           1             1    2     1       0.4279151066E-04       1    2    1         0.1112360877E-02      0.6467477605E-02
          0                 8           1             1    2     1       0.1921037295E-04       1    2    1         0.4993733789E-03      0.2895889241E-02
          0                 9           1             1    2     1       0.8624084888E-05       1    2    1         0.2241832765E-03      0.1296751719E-02

    ------------------------------------------------
       NWT REQUIRED            9 OUTER ITERATIONS 
       AND A TOTAL OF         14 INNER ITERATIONS.
    ------------------------------------------------

 NO OUTPUT CONTROL FOR STRESS PERIOD    6   TIME STEP    7
 
 SOLVING FOR HEAD 
                                                   Max.-Head-Change                         Max.-Flux-Residual
  Residual-Control   Outer-Iter.   Inner-Iter.     Column Row Layer    Maximum-Head-Change  Column Row Layer    Maximum-Flux-Residual          L2-NORM 
          0                 1           2             1   13     1      -0.9917629002E-02       1   13    1        -0.5409012029E+00      0.1844094179E+01
          0                 2           2             1    2     1       0.2342901674E-02       1    2    1         0.6086509543E-01      0.4373112156E+00
          0                 3           2             1    2     1       0.1052202896E-02       1    2    1         0.2734530227E-01      0.1657194113E+00
          0                 4           2             1    2     1       0.4724345326E-03       1    2    1         0.1227977964E-01      0.7222567791E-01
          0                 5           2             1    2     1       0.2121014335E-03       1    2    1         0.5513382239E-02      0.3220663703E-01
          0                 6           1             1    2     1       0.9522038708E-04       1    2    1         0.2475223327E-02      0.1441108233E-01
          0                 7           1             1    2     1       0.4274744785E-04       1    2    1         0.1111216071E-02      0.6451979495E-02
          0                 8           1             1    2     1       0.1919057841E-04       1    2    1         0.4988591029E-03      0.2888991517E-02
          0                 9           1             1    2     1       0.8615193190E-05       1    2    1         0.2239522573E-03      0.1293685538E-02

    ------------------------------------------------
       NWT REQUIRED            9 OUTER ITERATIONS 
       AND A TOTAL OF         14 INNER ITERATIONS.
    ------------------------------------------------

 NO OUTPUT CONTROL FOR STRESS PERIOD    6   TIME STEP    8
 
 SOLVING FOR HEAD 
                                                   Max.-Head-Change                         Max.-Flux-Residual
  Residual-Control   Outer-Iter.   Inner-Iter.     Column Row Layer    Maximum-Head-Change  Column Row Layer    Maximum-Flux-Residual          L2-NORM 
          0                 1           2             1   13     1      -0.9458735361E-02       1   13    1        -0.5159594628E+00      0.1803976412E+01
          0                 2           2             1    2     1       0.2340524862E-02       1    2    1         0.6080329814E-01      0.4349729336E+00
          0                 3           2             1    2     1       0.1051135642E-02       1    2    1         0.2731756632E-01      0.1653062093E+00
          0                 4           2             1    2     1       0.4719551731E-03       1    2    1         0.1226732415E-01      0.7205412522E-01
          0                 5           2             1    2     1       0.2118861059E-03       1    2    1         0.5507787622E-02      0.3213037891E-01
          0                 6           1             1    2     1       0.9512365838E-04       1    2    1         0.2472710191E-02      0.1437713779E-01
          0                 7           1             1    2     1       0.4270399480E-04       1    2    1         0.1110087118E-02      0.6436868159E-02
          0                 8           1             1    2     1       0.1917105824E-04       1    2    1         0.4983519514E-03      0.2882260952E-02
          0                 9           1             1    2     1       0.8606424047E-05       1    2    1         0.2237244297E-03      0.1290683265E-02

    ------------------------------------------------
       NWT REQUIRED            9 OUTER ITERATIONS 
       AND A TOTAL OF         14 INNER ITERATIONS.
    ------------------------------------------------

 NO OUTPUT CONTROL FOR STRESS PERIOD    6   TIME STEP    9
 
 SOLVING FOR HEAD 
                                                   Max.-Head-Change                         Max.-Flux-Residual
  Residual-Control   Outer-Iter.   Inner-Iter.     Column Row Layer    Maximum-Head-Change  Column Row Layer    Maximum-Flux-Residual          L2-NORM 
          0                 1           2             1   13     1      -0.9018761165E-02       1   13    1        -0.4920394091E+00      0.1768879710E+01
          0                 2           2             1    2     1       0.2338140898E-02       1    2    1         0.6074131604E-01      0.4328769867E+00
          0                 3           2             1    2     1       0.1050065167E-02       1    2    1         0.2728974680E-01      0.1649080036E+00
          0                 4           2             1    2     1       0.4714743666E-03       1    2    1         0.1225483107E-01      0.7188710984E-01
          0                 5           2             1    2     1       0.2116701282E-03       1    2    1         0.5502176103E-02      0.3205610972E-01
          0                 6           1             1    2     1       0.9502663756E-04       1    2    1         0.2470189468E-02      0.1434407352E-01
          0                 7           1             1    2     1       0.4266041095E-04       1    2    1         0.1108954765E-02      0.6422147447E-02
          0                 8           1             1    2     1       0.1915147955E-04       1    2    1         0.4978432707E-03      0.2875705929E-02
          0                 9           1             1    2     1       0.8597628392E-05       1    2    1         0.2234959139E-03      0.1287763737E-02

    ------------------------------------------------
       NWT REQUIRED            9 OUTER ITERATIONS 
       AND A TOTAL OF         14 INNER ITERATIONS.
    ------------------------------------------------

 OUTPUT CONTROL FOR STRESS PERIOD    6   TIME STEP   10
    PRINT BUDGET
    SAVE BUDGET
 UBUDSV SAVING "         STORAGE" ON UNIT102 AT TIME STEP    10, STRESS PERIOD    6
 UBUDSV SAVING "   CONSTANT HEAD" ON UNIT102 AT TIME STEP    10, STRESS PERIOD    6
 UBUDSV SAVING "FLOW RIGHT FACE " ON UNIT102 AT TIME STEP    10, STRESS PERIOD    6
 UBUDSV SAVING "FLOW FRONT FACE " ON UNIT102 AT TIME STEP    10, STRESS PERIOD    6

  HEAD DEP BOUNDS   PERIOD    6   STEP    10
 BOUNDARY      1   LAYER   1   ROW    13   COL     1   RATE   -0.295455    
 BOUNDARY      2   LAYER   1   ROW    14   COL     9   RATE    0.275114    



 STREAM LISTING     PERIOD      6   STEP       10

 LAYER ROW COL. STREAM  RCH.  FLOW INTO     FLOW TO   FLOW OUT OF   OVRLND.     DIRECT     STREAM       STREAM     STREAM     STREAM   STREAMBED  STREAMBED
                SEG.NO.  NO.  STRM. RCH.    AQUIFER    STRM. RCH.    RUNOFF     PRECIP       ET          HEAD       DEPTH      WIDTH   CONDCTNC.   GRADIENT

   1    1    1     1     1    2.8000E+01  2.5860E-01   2.7741E+01  0.000E+00  0.000E+00  0.000E+00  1.09427E+03  1.221E+00  1.361E+01  6.126E-02  1.407E+00
   1    2    2     1     2    2.7741E+01  4.0002E-01   2.7341E+01  0.000E+00  0.000E+00  0.000E+00  1.08928E+03  1.217E+00  1.355E+01  9.487E-02  1.406E+00
   1    3    3     1     3    2.7341E+01  3.4070E-01   2.7001E+01  0.000E+00  0.000E+00  0.000E+00  1.08363E+03  1.212E+00  1.348E+01  8.090E-02  1.404E+00
   1    3    4     1     4    2.7001E+01  3.1335E-01   2.6687E+01  0.000E+00  0.000E+00  0.000E+00  1.07861E+03  1.207E+00  1.342E+01  7.448E-02  1.402E+00
   1    4    5     2     1    2.4687E+01  3.2711E-01   2.4360E+01  0.000E+00  0.000E+00  0.000E+00  1.07313E+03  1.194E+00  1.200E+01  7.800E-02  1.398E+00
   1    5    6     2     2    2.4360E+01  2.5111E-01   2.4109E+01  0.000E+00  0.000E+00  0.000E+00  1.06769E+03  1.185E+00  1.200E+01  6.000E-02  1.395E+00
   1    6    6     2     3    2.4109E+01  2.5067E-01   2.3858E+01  0.000E+00  0.000E+00  0.000E+00  1.06297E+03  1.178E+00  1.200E+01  6.000E-02  1.393E+00
   1    7    6     2     4    2.3858E+01  2.5023E-01   2.3608E+01  0.000E+00  0.000E+00  0.000E+00  1.05825E+03  1.170E+00  1.200E+01  6.000E-02  1.390E+00
   1    8    6     2     5    2.3608E+01  2.4978E-01   2.3358E+01  0.000E+00  0.000E+00  0.000E+00  1.05352E+03  1.163E+00  1.200E+01  6.000E-02  1.388E+00
   1    3    5     3     1    2.0000E+00  2.8252E-01   1.7175E+00  0.000E+00  0.000E+00  0.000E+00  1.07555E+03  1.909E+00  9.636E+00  7.227E-02  1.955E+00
   1    3    6     3     2    1.7175E+00  2.4905E-01   1.4684E+00  0.000E+00  0.000E+00  0.000E+00  1.07264E+03  1.727E+00  8.909E+00  6.682E-02  1.864E+00
   1    3    7     3     3    1.4684E+00  1.9718E-01   1.2712E+00  0.000E+00  0.000E+00  0.000E+00  1.06987E+03  1.555E+00  8.218E+00  5.547E-02  1.777E+00
   1    4    8     3     4    1.2712E+00  2.2567E-01   1.0456E+00  0.000E+00  0.000E+00  0.000E+00  1.06682E+03  1.364E+00  7.455E+00  6.709E-02  1.682E+00
   1    5    8     3     5    1.0456E+00  1.5790E-01   8.8768E-01  0.000E+00  0.000E+00  0.000E+00  1.06362E+03  1.164E+00  6.655E+00  4.991E-02  1.582E+00
   1    6    8     3     6    8.8768E-01  5.5980E-02   8.3170E-01  0.000E+00  0.000E+00  0.000E+00  1.06158E+03  1.036E+00  6.145E+00  1.844E-02  1.518E+00
   1    5   10     4     1    1.0000E+01  9.0919E-02   9.9091E+00  0.000E+00  0.000E+00  0.000E+00  1.07836E+03  6.368E-01  1.000E+01  2.500E-02  1.212E+00
   1    5    9     4     2    9.9091E+00  1.8158E-01   9.7275E+00  0.000E+00  0.000E+00  0.000E+00  1.07154E+03  6.315E-01  1.000E+01  5.000E-02  1.211E+00
   1    6    8     4     3    9.7275E+00  1.2689E-01   9.6006E+00  0.000E+00  0.000E+00  0.000E+00  1.06381E+03  6.256E-01  1.000E+01  3.500E-02  1.209E+00
   1    6    8     5     1    1.0432E+01  2.2686E-01   1.0205E+01  0.000E+00  0.000E+00  0.000E+00  1.05868E+03  6.790E-01  1.542E+01  6.166E-02  1.226E+00
   1    7    7     5     2    1.0205E+01  2.7894E-01   9.9265E+00  0.000E+00  0.000E+00  0.000E+00  1.05417E+03  6.732E-01  1.519E+01  7.594E-02  1.224E+00
   1    8    7     5     3    9.9265E+00  1.9221E-01   9.7343E+00  0.000E+00  0.000E+00  0.000E+00  1.04992E+03  6.676E-01  1.497E+01  5.241E-02  1.223E+00
   1    8    6     5     4    9.7343E+00  1.3577E-01   9.5985E+00  0.000E+00  0.000E+00  0.000E+00  1.04691E+03  6.637E-01  1.482E+01  3.706E-02  1.221E+00
   1    9    6     6     1    3.2957E+01  2.6627E-01   3.2691E+01  0.000E+00  0.000E+00  0.000E+00  1.04417E+03  1.438E+00  1.200E+01  6.000E-02  1.479E+00
   1   10    7     6     2    3.2691E+01  2.6584E-01   3.2425E+01  0.000E+00  0.000E+00  0.000E+00  1.03961E+03  1.431E+00  1.200E+01  6.000E-02  1.477E+00
   1   11    7     6     3    3.2425E+01  2.6542E-01   3.2159E+01  0.000E+00  0.000E+00  0.000E+00  1.03506E+03  1.424E+00  1.200E+01  6.000E-02  1.475E+00
   1   12    7     6     4    3.2159E+01  2.6500E-01   3.1894E+01  0.000E+00  0.000E+00  0.000E+00  1.03051E+03  1.417E+00  1.200E+01  6.000E-02  1.472E+00
   1   13    7     6     5    3.1894E+01 -3.6191E-02   3.1931E+01  0.000E+00  0.000E+00  0.000E+00  1.02732E+03  1.414E+00  1.200E+01  2.400E-01 -5.027E-02
   1   14    9     7     1    1.5000E+02  1.1794E+00   1.4882E+02  0.000E+00  0.000E+00  0.000E+00  1.03987E+03  2.288E+00  5.530E+01  5.593E-01  7.029E-01
   1   13    8     7     2    1.4882E+02  1.6258E+00   1.4719E+02  0.000E+00  0.000E+00  0.000E+00  1.03478E+03  2.281E+00  5.526E+01  6.149E-01  8.814E-01
   1   13    7     7     3    1.4719E+02  1.2394E+00   1.4596E+02  0.000E+00  0.000E+00  0.000E+00  1.02969E+03  2.273E+00  5.523E+01  5.586E-01  7.396E-01
   1   13    6     8     1    1.7789E+02  7.3301E-01   1.7715E+02  0.000E+00  0.000E+00  0.000E+00  1.02488E+03  3.001E+00  4.351E+01  4.434E-01  5.511E-01
   1   13    5     8     2    1.7715E+02 -4.1017E-02   1.7719E+02  0.000E+00  0.000E+00  0.000E+00  1.01862E+03  2.998E+00  4.348E+01  4.430E+00 -3.086E-03
   1   13    4     8     3    1.7719E+02 -3.1850E+00   1.8038E+02  0.000E+00  0.000E+00  0.000E+00  1.01238E+03  3.009E+00  4.362E+01  4.445E+00 -2.388E-01
   1   13    3     8     4    1.8038E+02 -4.1900E+00   1.8457E+02  0.000E+00  0.000E+00  0.000E+00  1.00616E+03  3.032E+00  4.396E+01  4.480E+00 -3.118E-01
   1   13    2     8     5    1.8457E+02 -3.0913E+00   1.8766E+02  0.000E+00  0.000E+00  0.000E+00  9.99929E+02  3.054E+00  4.429E+01  4.513E+00 -2.283E-01
   1   13    1     8     6    1.8766E+02 -2.2583E+00   1.8992E+02  0.000E+00  0.000E+00  0.000E+00  9.94946E+02  3.071E+00  4.452E+01  2.722E+00 -2.765E-01
   1    6    8     9     1    0.0000E+00  0.0000E+00   0.0000E+00  0.000E+00  0.000E+00  0.000E+00  1.07850E+03  0.000E+00  4.000E+00  0.000E+00  1.000E+00



 UBDSV3 SAVING "     NETRECHARGE" ON UNIT 100 AT TIME STEP    10, STRESS PERIOD   6
 UBDSV3 SAVING "    NETDISCHARGE" ON UNIT 101 AT TIME STEP    10, STRESS PERIOD   6
 UBDSV3 SAVING "           GW ET" ON UNIT  61 AT TIME STEP    10, STRESS PERIOD   6
 UBDSV3 SAVING "    UZF RECHARGE" ON UNIT  61 AT TIME STEP    10, STRESS PERIOD   6
 UBDSV3 SAVING " SURFACE LEAKAGE" ON UNIT  61 AT TIME STEP    10, STRESS PERIOD   6
 UBDSV3 SAVING "       HORT+DUNN" ON UNIT  61 AT TIME STEP    10, STRESS PERIOD   6
 UBDSV3 SAVING "  STORAGE CHANGE" ON UNIT  61 AT TIME STEP    10, STRESS PERIOD   6


UNSATURATED ZONE PACKAGE VOLUMETRIC BUDGET FOR  TIME STEP    10 STRESS PERIOD    6
  ------------------------------------------------------------------------------



     CUMULATIVE VOLUMES      L**3       RATES FOR THIS TIME STEP      L**3/T
     ------------------                 ------------------------

           IN:                                      IN:
           ---                                      ---
        INFILTRATION =      151807.6534          INFILTRATION =       0.0000E+00

          OUT:                                     OUT:
          ----                                     ----
              UZF ET =    64955294.0277                UZF ET =          28.2500
        UZF RECHARGE =   305548808.6994          UZF RECHARGE =          25.0024

            IN - OUT =  -370352295.0737              IN - OUT =         -53.2524

          STORAGE:                                 STORAGE:
          --------                                 --------
      STORAGE CHANGE =  -370331817.2054        STORAGE CHANGE =         -53.2523

 PERCENT DISCREPANCY IS DIFFERENCE BETWEEN IN-OUT MINUS CHANGE IN STORAGE
 DIVIDED BY THE AVERAGE OF IN AND OUT TIMES 100

 PERCENT DISCREPANCY =          -0.00     PERCENT DISCREPANCY =          -0.00






1
  VOLUMETRIC BUDGET FOR ENTIRE MODEL AT END OF TIME STEP   10, STRESS PERIOD   6
  ------------------------------------------------------------------------------

     CUMULATIVE VOLUMES      L**3       RATES FOR THIS TIME STEP      L**3/T
     ------------------                 ------------------------

           IN:                                      IN:
           ---                                      ---
             STORAGE     =     2220677.5000               STORAGE     =           1.6105
       CONSTANT HEAD     =           0.0000         CONSTANT HEAD     =           0.0000
               WELLS     =           0.0000                 WELLS     =           0.0000
     HEAD DEP BOUNDS     =     3207919.7500       HEAD DEP BOUNDS     =           0.2751
      STREAM LEAKAGE     =   131943272.0000        STREAM LEAKAGE     =          10.8833
        UZF RECHARGE     =   305548832.0000          UZF RECHARGE     =          25.0024
               GW ET     =           0.0000                 GW ET     =           0.0000
     SURFACE LEAKAGE     =           0.0000       SURFACE LEAKAGE     =           0.0000
    SUPPLEMENTARY WELLS  =           0.0000      SUPPLEMENTARY WELLS  =           0.0000

                TOTAL IN =   442920704.0000                  TOTAL IN =          37.7713

          OUT:                                     OUT:
          ----                                     ----
             STORAGE     =   310576768.0000               STORAGE     =          23.9198
       CONSTANT HEAD     =           0.0000         CONSTANT HEAD     =           0.0000
               WELLS     =           0.0000                 WELLS     =           0.0000
     HEAD DEP BOUNDS     =     3350042.5000       HEAD DEP BOUNDS     =           0.2955
      STREAM LEAKAGE     =   127916088.0000        STREAM LEAKAGE     =          12.8017
        UZF RECHARGE     =           0.0000          UZF RECHARGE     =           0.0000
               GW ET     =      990571.5000                 GW ET     =           0.7500
     SURFACE LEAKAGE     =           0.0000       SURFACE LEAKAGE     =           0.0000
    SUPPLEMENTARY WELLS  =       31277.1836      SUPPLEMENTARY WELLS  =           0.0000

               TOTAL OUT =   442864736.0000                 TOTAL OUT =          37.7669

                IN - OUT =       55968.0000                  IN - OUT =       4.3068E-03

     PERCENT DISCREPANCY =           0.01         PERCENT DISCREPANCY =           0.01






         TIME SUMMARY AT END OF TIME STEP   10 IN STRESS PERIOD    6
                    SECONDS     MINUTES      HOURS       DAYS        YEARS
                    -----------------------------------------------------------
   TIME STEP LENGTH  87600.      1460.0      24.333      1.0139     2.77588E-03
 STRESS PERIOD TIME 8.76000E+05  14600.      243.33      10.139     2.77588E-02
         TOTAL TIME 1.14744E+07 1.91240E+05  3187.3      132.81     0.36360    
1
 
 SOLVING FOR HEAD 
                                                   Max.-Head-Change                         Max.-Flux-Residual
  Residual-Control   Outer-Iter.   Inner-Iter.     Column Row Layer    Maximum-Head-Change  Column Row Layer    Maximum-Flux-Residual          L2-NORM 
          0                 1           2             1   13     1      -0.8597035855E-02       1   13    1        -0.4691053972E+00      0.1738269756E+01
          0                 2           2             1    2     1       0.2335769807E-02       1    2    1         0.6067966961E-01      0.4309920468E+00
          0                 3           2             1    2     1       0.1049000461E-02       1    2    1         0.2726207740E-01      0.1645233879E+00
          0                 4           2             1    2     1       0.4709961490E-03       1    2    1         0.1224240529E-01      0.7172436953E-01
          0                 5           2             1    2     1       0.2114553134E-03       1    2    1         0.5496594801E-02      0.3198369673E-01
          0                 6           1             1    2     1       0.9493013896E-04       1    2    1         0.2467682314E-02      0.1431182898E-01
          0                 7           1             1    2     1       0.4261706196E-04       1    2    1         0.1107828509E-02      0.6407788218E-02
          0                 8           1             1    2     1       0.1913200590E-04       1    2    1         0.4973373287E-03      0.2869310649E-02
          0                 9           1             1    2     1       0.8588880508E-05       1    2    1         0.2232686334E-03      0.1284916029E-02

    ------------------------------------------------
       NWT REQUIRED            9 OUTER ITERATIONS 
       AND A TOTAL OF         14 INNER ITERATIONS.
    ------------------------------------------------

 NO OUTPUT CONTROL FOR STRESS PERIOD    6   TIME STEP   11
 
 SOLVING FOR HEAD 
                                                   Max.-Head-Change                         Max.-Flux-Residual
  Residual-Control   Outer-Iter.   Inner-Iter.     Column Row Layer    Maximum-Head-Change  Column Row Layer    Maximum-Flux-Residual          L2-NORM 
          0                 1           2             1   13     1      -0.8193025757E-02       1   13    1        -0.4471291843E+00      0.1711576572E+01
          0                 2           2             1    2     1       0.2333431639E-02       1    2    1         0.6061887949E-01      0.4292900280E+00
          0                 3           2             1    2     1       0.1047950532E-02       1    2    1         0.2723479214E-01      0.1641502875E+00
          0                 4           2             1    2     1       0.4705245662E-03       1    2    1         0.1223015196E-01      0.7156519351E-01
          0                 5           2             1    2     1       0.2112434776E-03       1    2    1         0.5491090933E-02      0.3191282368E-01
          0                 6           1             1    2     1       0.9483497871E-04       1    2    1         0.2465209935E-02      0.1428023498E-01
          0                 7           1             1    2     1       0.4257431348E-04       1    2    1         0.1106717862E-02      0.6393718095E-02
          0                 8           1             1    2     1       0.1911280213E-04       1    2    1         0.4968383976E-03      0.2863043820E-02
          0                 9           1             1    2     1       0.8580253678E-05       1    2    1         0.2230444992E-03      0.1282123432E-02

    ------------------------------------------------
       NWT REQUIRED            9 OUTER ITERATIONS 
       AND A TOTAL OF         14 INNER ITERATIONS.
    ------------------------------------------------

 NO OUTPUT CONTROL FOR STRESS PERIOD    6   TIME STEP   12
 
 SOLVING FOR HEAD 
                                                   Max.-Head-Change                         Max.-Flux-Residual
  Residual-Control   Outer-Iter.   Inner-Iter.     Column Row Layer    Maximum-Head-Change  Column Row Layer    Maximum-Flux-Residual          L2-NORM 
          0                 1           2             1   13     1      -0.7806083779E-02       1   13    1        -0.4260762583E+00      0.1690163173E+01
          0                 2           2             1    2     1       0.2331085737E-02       1    2    1         0.6055788965E-01      0.4277795906E+00
          0                 3           2             1    2     1       0.1046897119E-02       1    2    1         0.2720741651E-01      0.1637871264E+00
          0                 4           2             1    2     1       0.4700514176E-03       1    2    1         0.1221785794E-01      0.7140856890E-01
          0                 5           2             1    2     1       0.2110309387E-03       1    2    1         0.5485568778E-02      0.3184305933E-01
          0                 6           1             1    2     1       0.9473950207E-04       1    2    1         0.2462729337E-02      0.1424918954E-01
          0                 7           1             1    2     1       0.4253142319E-04       1    2    1         0.1105603528E-02      0.6379889439E-02
          0                 8           1             1    2     1       0.1909353457E-04       1    2    1         0.4963378126E-03      0.2856883386E-02
          0                 9           1             1    2     1       0.8571598585E-05       1    2    1         0.2228196273E-03      0.1279378206E-02

    ------------------------------------------------
       NWT REQUIRED            9 OUTER ITERATIONS 
       AND A TOTAL OF         14 INNER ITERATIONS.
    ------------------------------------------------

 NO OUTPUT CONTROL FOR STRESS PERIOD    6   TIME STEP   13
 
 SOLVING FOR HEAD 
                                                   Max.-Head-Change                         Max.-Flux-Residual
  Residual-Control   Outer-Iter.   Inner-Iter.     Column Row Layer    Maximum-Head-Change  Column Row Layer    Maximum-Flux-Residual          L2-NORM 
          0                 1           2             1   13     1      -0.7436502009E-02       1   13    1        -0.4059628485E+00      0.1688409224E+01
          0                 2           2             1    2     1       0.2328752164E-02       1    2    1         0.6049722127E-01      0.4269591401E+00
          0                 3           2             1    2     1       0.1045849232E-02       1    2    1         0.2718018466E-01      0.1634364413E+00
          0                 4           2             1    2     1       0.4695807489E-03       1    2    1         0.1220562840E-01      0.7125197729E-01
          0                 5           2             1    2     1       0.2108195128E-03       1    2    1         0.5480075565E-02      0.3177326679E-01
          0                 6           1             1    2     1       0.9464452641E-04       1    2    1         0.2460261749E-02      0.1421809790E-01
          0                 7           1             1    2     1       0.4248875774E-04       1    2    1         0.1104495037E-02      0.6366037900E-02
          0                 8           1             1    2     1       0.1907436806E-04       1    2    1         0.4958398498E-03      0.2850711890E-02
          0                 9           1             1    2     1       0.8562988512E-05       1    2    1         0.2225959290E-03      0.1276629341E-02

    ------------------------------------------------
       NWT REQUIRED            9 OUTER ITERATIONS 
       AND A TOTAL OF         14 INNER ITERATIONS.
    ------------------------------------------------

 NO OUTPUT CONTROL FOR STRESS PERIOD    6   TIME STEP   14
 
 SOLVING FOR HEAD 
                                                   Max.-Head-Change                         Max.-Flux-Residual
  Residual-Control   Outer-Iter.   Inner-Iter.     Column Row Layer    Maximum-Head-Change  Column Row Layer    Maximum-Flux-Residual          L2-NORM 
          0                 1           2             1   13     1      -0.7085414727E-02       1   13    1        -0.3868507532E+00      0.1666957827E+01
          0                 2           2             1    2     1       0.2326430811E-02       1    2    1         0.6043687107E-01      0.4253399557E+00
          0                 3           2             1    2     1       0.1044806827E-02       1    2    1         0.2715309537E-01      0.1630803479E+00
          0                 4           2             1    2     1       0.4691125410E-03       1    2    1         0.1219346283E-01      0.7109913101E-01
          0                 5           2             1    2     1       0.2106091937E-03       1    2    1         0.5474611093E-02      0.3170517435E-01
          0                 6           1             1    2     1       0.9455004646E-04       1    2    1         0.2457807055E-02      0.1418775836E-01
          0                 7           1             1    2     1       0.4244631515E-04       1    2    1         0.1103392342E-02      0.6352520536E-02
          0                 8           1             1    2     1       0.1905530210E-04       1    2    1         0.4953444953E-03      0.2844688549E-02
          0                 9           1             1    2     1       0.8554423209E-05       1    2    1         0.2223734009E-03      0.1273943884E-02

    ------------------------------------------------
       NWT REQUIRED            9 OUTER ITERATIONS 
       AND A TOTAL OF         14 INNER ITERATIONS.
    ------------------------------------------------

 OUTPUT CONTROL FOR STRESS PERIOD    6   TIME STEP   15
    PRINT BUDGET
    PRINT HEAD FOR ALL LAYERS
    SAVE HEAD FOR ALL LAYERS
    SAVE BUDGET
 UBUDSV SAVING "         STORAGE" ON UNIT102 AT TIME STEP    15, STRESS PERIOD    6
 UBUDSV SAVING "   CONSTANT HEAD" ON UNIT102 AT TIME STEP    15, STRESS PERIOD    6
 UBUDSV SAVING "FLOW RIGHT FACE " ON UNIT102 AT TIME STEP    15, STRESS PERIOD    6
 UBUDSV SAVING "FLOW FRONT FACE " ON UNIT102 AT TIME STEP    15, STRESS PERIOD    6

  HEAD DEP BOUNDS   PERIOD    6   STEP    15
 BOUNDARY      1   LAYER   1   ROW    13   COL     1   RATE   -0.294101    
 BOUNDARY      2   LAYER   1   ROW    14   COL     9   RATE    0.275002    



 STREAM LISTING     PERIOD      6   STEP       15

 LAYER ROW COL. STREAM  RCH.  FLOW INTO     FLOW TO   FLOW OUT OF   OVRLND.     DIRECT     STREAM       STREAM     STREAM     STREAM   STREAMBED  STREAMBED
                SEG.NO.  NO.  STRM. RCH.    AQUIFER    STRM. RCH.    RUNOFF     PRECIP       ET          HEAD       DEPTH      WIDTH   CONDCTNC.   GRADIENT

   1    1    1     1     1    2.8000E+01  2.5860E-01   2.7741E+01  0.000E+00  0.000E+00  0.000E+00  1.09427E+03  1.221E+00  1.361E+01  6.126E-02  1.407E+00
   1    2    2     1     2    2.7741E+01  4.0002E-01   2.7341E+01  0.000E+00  0.000E+00  0.000E+00  1.08928E+03  1.217E+00  1.355E+01  9.487E-02  1.406E+00
   1    3    3     1     3    2.7341E+01  3.4070E-01   2.7001E+01  0.000E+00  0.000E+00  0.000E+00  1.08363E+03  1.212E+00  1.348E+01  8.090E-02  1.404E+00
   1    3    4     1     4    2.7001E+01  3.1335E-01   2.6687E+01  0.000E+00  0.000E+00  0.000E+00  1.07861E+03  1.207E+00  1.342E+01  7.448E-02  1.402E+00
   1    4    5     2     1    2.4687E+01  3.2711E-01   2.4360E+01  0.000E+00  0.000E+00  0.000E+00  1.07313E+03  1.194E+00  1.200E+01  7.800E-02  1.398E+00
   1    5    6     2     2    2.4360E+01  2.5111E-01   2.4109E+01  0.000E+00  0.000E+00  0.000E+00  1.06769E+03  1.185E+00  1.200E+01  6.000E-02  1.395E+00
   1    6    6     2     3    2.4109E+01  2.5067E-01   2.3858E+01  0.000E+00  0.000E+00  0.000E+00  1.06297E+03  1.178E+00  1.200E+01  6.000E-02  1.393E+00
   1    7    6     2     4    2.3858E+01  2.5023E-01   2.3608E+01  0.000E+00  0.000E+00  0.000E+00  1.05825E+03  1.170E+00  1.200E+01  6.000E-02  1.390E+00
   1    8    6     2     5    2.3608E+01  2.4978E-01   2.3358E+01  0.000E+00  0.000E+00  0.000E+00  1.05352E+03  1.163E+00  1.200E+01  6.000E-02  1.388E+00
   1    3    5     3     1    2.0000E+00  2.8252E-01   1.7175E+00  0.000E+00  0.000E+00  0.000E+00  1.07555E+03  1.909E+00  9.636E+00  7.227E-02  1.955E+00
   1    3    6     3     2    1.7175E+00  2.4905E-01   1.4684E+00  0.000E+00  0.000E+00  0.000E+00  1.07264E+03  1.727E+00  8.909E+00  6.682E-02  1.864E+00
   1    3    7     3     3    1.4684E+00  1.9718E-01   1.2712E+00  0.000E+00  0.000E+00  0.000E+00  1.06987E+03  1.555E+00  8.218E+00  5.547E-02  1.777E+00
   1    4    8     3     4    1.2712E+00  2.2567E-01   1.0456E+00  0.000E+00  0.000E+00  0.000E+00  1.06682E+03  1.364E+00  7.455E+00  6.709E-02  1.682E+00
   1    5    8     3     5    1.0456E+00  1.5790E-01   8.8768E-01  0.000E+00  0.000E+00  0.000E+00  1.06362E+03  1.164E+00  6.655E+00  4.991E-02  1.582E+00
   1    6    8     3     6    8.8768E-01  5.5980E-02   8.3170E-01  0.000E+00  0.000E+00  0.000E+00  1.06158E+03  1.036E+00  6.145E+00  1.844E-02  1.518E+00
   1    5   10     4     1    1.0000E+01  9.0919E-02   9.9091E+00  0.000E+00  0.000E+00  0.000E+00  1.07836E+03  6.368E-01  1.000E+01  2.500E-02  1.212E+00
   1    5    9     4     2    9.9091E+00  1.8158E-01   9.7275E+00  0.000E+00  0.000E+00  0.000E+00  1.07154E+03  6.315E-01  1.000E+01  5.000E-02  1.211E+00
   1    6    8     4     3    9.7275E+00  1.2689E-01   9.6006E+00  0.000E+00  0.000E+00  0.000E+00  1.06381E+03  6.256E-01  1.000E+01  3.500E-02  1.209E+00
   1    6    8     5     1    1.0432E+01  2.2686E-01   1.0205E+01  0.000E+00  0.000E+00  0.000E+00  1.05868E+03  6.790E-01  1.542E+01  6.166E-02  1.226E+00
   1    7    7     5     2    1.0205E+01  2.7894E-01   9.9265E+00  0.000E+00  0.000E+00  0.000E+00  1.05417E+03  6.732E-01  1.519E+01  7.594E-02  1.224E+00
   1    8    7     5     3    9.9265E+00  1.9221E-01   9.7343E+00  0.000E+00  0.000E+00  0.000E+00  1.04992E+03  6.676E-01  1.497E+01  5.241E-02  1.223E+00
   1    8    6     5     4    9.7343E+00  1.3577E-01   9.5985E+00  0.000E+00  0.000E+00  0.000E+00  1.04691E+03  6.637E-01  1.482E+01  3.706E-02  1.221E+00
   1    9    6     6     1    3.2957E+01  2.6627E-01   3.2691E+01  0.000E+00  0.000E+00  0.000E+00  1.04417E+03  1.438E+00  1.200E+01  6.000E-02  1.479E+00
   1   10    7     6     2    3.2691E+01  2.6584E-01   3.2425E+01  0.000E+00  0.000E+00  0.000E+00  1.03961E+03  1.431E+00  1.200E+01  6.000E-02  1.477E+00
   1   11    7     6     3    3.2425E+01  2.6542E-01   3.2159E+01  0.000E+00  0.000E+00  0.000E+00  1.03506E+03  1.424E+00  1.200E+01  6.000E-02  1.475E+00
   1   12    7     6     4    3.2159E+01  2.6500E-01   3.1894E+01  0.000E+00  0.000E+00  0.000E+00  1.03051E+03  1.417E+00  1.200E+01  6.000E-02  1.472E+00
   1   13    7     6     5    3.1894E+01 -3.6991E-02   3.1931E+01  0.000E+00  0.000E+00  0.000E+00  1.02732E+03  1.414E+00  1.200E+01  2.400E-01 -5.138E-02
   1   14    9     7     1    1.5000E+02  1.1778E+00   1.4882E+02  0.000E+00  0.000E+00  0.000E+00  1.03987E+03  2.288E+00  5.530E+01  5.593E-01  7.019E-01
   1   13    8     7     2    1.4882E+02  1.6227E+00   1.4720E+02  0.000E+00  0.000E+00  0.000E+00  1.03478E+03  2.281E+00  5.526E+01  6.149E-01  8.797E-01
   1   13    7     7     3    1.4720E+02  1.2375E+00   1.4596E+02  0.000E+00  0.000E+00  0.000E+00  1.02969E+03  2.273E+00  5.523E+01  5.586E-01  7.385E-01
   1   13    6     8     1    1.7789E+02  7.3330E-01   1.7716E+02  0.000E+00  0.000E+00  0.000E+00  1.02488E+03  3.001E+00  4.351E+01  4.434E-01  5.513E-01
   1   13    5     8     2    1.7716E+02  2.4906E-04   1.7716E+02  0.000E+00  0.000E+00  0.000E+00  1.01862E+03  2.998E+00  4.347E+01  4.430E-01  1.874E-04
   1   13    4     8     3    1.7716E+02 -3.0879E+00   1.8025E+02  0.000E+00  0.000E+00  0.000E+00  1.01238E+03  3.008E+00  4.362E+01  4.445E+00 -2.316E-01
   1   13    3     8     4    1.8025E+02 -4.0829E+00   1.8433E+02  0.000E+00  0.000E+00  0.000E+00  1.00616E+03  3.030E+00  4.394E+01  4.478E+00 -3.039E-01
   1   13    2     8     5    1.8433E+02 -2.9731E+00   1.8730E+02  0.000E+00  0.000E+00  0.000E+00  9.99927E+02  3.052E+00  4.426E+01  4.510E+00 -2.197E-01
   1   13    1     8     6    1.8730E+02 -2.1662E+00   1.8947E+02  0.000E+00  0.000E+00  0.000E+00  9.94943E+02  3.068E+00  4.449E+01  2.720E+00 -2.655E-01
   1    6    8     9     1    0.0000E+00  0.0000E+00   0.0000E+00  0.000E+00  0.000E+00  0.000E+00  1.07850E+03  0.000E+00  4.000E+00  0.000E+00  1.000E+00



 UBDSV3 SAVING "     NETRECHARGE" ON UNIT 100 AT TIME STEP    15, STRESS PERIOD   6
 UBDSV3 SAVING "    NETDISCHARGE" ON UNIT 101 AT TIME STEP    15, STRESS PERIOD   6
 UBDSV3 SAVING "           GW ET" ON UNIT  61 AT TIME STEP    15, STRESS PERIOD   6
 UBDSV3 SAVING "    UZF RECHARGE" ON UNIT  61 AT TIME STEP    15, STRESS PERIOD   6
 UBDSV3 SAVING " SURFACE LEAKAGE" ON UNIT  61 AT TIME STEP    15, STRESS PERIOD   6
 UBDSV3 SAVING "       HORT+DUNN" ON UNIT  61 AT TIME STEP    15, STRESS PERIOD   6
 UBDSV3 SAVING "  STORAGE CHANGE" ON UNIT  61 AT TIME STEP    15, STRESS PERIOD   6


UNSATURATED ZONE PACKAGE VOLUMETRIC BUDGET FOR  TIME STEP    15 STRESS PERIOD    6
  ------------------------------------------------------------------------------



     CUMULATIVE VOLUMES      L**3       RATES FOR THIS TIME STEP      L**3/T
     ------------------                 ------------------------

           IN:                                      IN:
           ---                                      ---
        INFILTRATION =      151807.6534          INFILTRATION =       0.0000E+00

          OUT:                                     OUT:
          ----                                     ----
              UZF ET =    77279600.8519                UZF ET =          28.0000
        UZF RECHARGE =   316466068.9089          UZF RECHARGE =          24.8738

            IN - OUT =  -393593862.1074              IN - OUT =         -52.8738

          STORAGE:                                 STORAGE:
          --------                                 --------
      STORAGE CHANGE =  -393573355.5107        STORAGE CHANGE =         -52.8737

 PERCENT DISCREPANCY IS DIFFERENCE BETWEEN IN-OUT MINUS CHANGE IN STORAGE
 DIVIDED BY THE AVERAGE OF IN AND OUT TIMES 100

 PERCENT DISCREPANCY =          -0.00     PERCENT DISCREPANCY =          -0.00






1
              HEAD IN LAYER   1 AT END OF TIME STEP    15 IN STRESS PERIOD    6
  -----------------------------------------------------------------------------

           1       2       3       4       5       6       7       8       9      10
 ...................................................................................
   1  1034.23 1032.74 6999.00 6999.00 6999.00 6999.00 6999.00 6999.00 6999.00 6999.00
   2  1033.55 1032.20 1031.19 6999.00 6999.00 1032.67 1032.84 1032.85 6999.00 6999.00
   3  6999.00 1031.29 1030.86 1030.55 1031.02 1031.68 1032.31 1032.37 6999.00 6999.00
   4  1030.62 1030.56 1030.18 1029.73 1029.74 1029.76 1030.44 1031.64 1031.47 6999.00
   5  1030.17 1029.77 1029.34 1028.94 1028.99 1029.20 1029.32 1029.79 1030.43 1030.89
   6  1029.59 1028.99 1028.52 1028.16 1028.24 1028.58 1028.83 1029.36 1030.18 1031.30
   7  1029.07 1028.00 1027.53 1027.23 1027.37 1027.80 1028.21 1028.72 1029.78 6999.00
   8  6999.00 1026.55 1026.28 1026.09 1026.29 1026.81 1027.24 1028.28 1029.18 6999.00
   9  6999.00 1024.36 1024.43 1024.54 1024.90 1025.58 1026.11 1027.29 1028.60 6999.00
  10  6999.00 1021.37 1021.88 1022.60 1023.36 1024.39 1025.36 1026.81 1028.62 1029.25
  11  6999.00 1016.65 1017.77 1020.08 1021.71 1023.46 1025.07 1027.21 1029.59 6999.00
  12  1002.94 1008.81 1012.64 1016.60 1019.92 1022.94 1025.47 1029.10 1032.29 6999.00
  13   995.74 1000.59 1007.07 1013.08 1018.62 1023.22 1027.48 1032.14 1035.08 6999.00
  14  6999.00 1006.89 1009.82 1014.45 1019.22 1023.63 1028.49 1033.82 1037.76 6999.00
  15  6999.00 6999.00 1013.64 1016.35 1019.80 1022.79 6999.00 6999.00 6999.00 6999.00

 HEAD WILL BE SAVED ON UNIT   62 AT END OF TIME STEP   15, STRESS PERIOD    6
1
  VOLUMETRIC BUDGET FOR ENTIRE MODEL AT END OF TIME STEP   15, STRESS PERIOD   6
  ------------------------------------------------------------------------------

     CUMULATIVE VOLUMES      L**3       RATES FOR THIS TIME STEP      L**3/T
     ------------------                 ------------------------

           IN:                                      IN:
           ---                                      ---
             STORAGE     =     2824681.0000               STORAGE     =           1.2967
       CONSTANT HEAD     =           0.0000         CONSTANT HEAD     =           0.0000
               WELLS     =           0.0000                 WELLS     =           0.0000
     HEAD DEP BOUNDS     =     3328390.0000       HEAD DEP BOUNDS     =           0.2750
      STREAM LEAKAGE     =   136708480.0000        STREAM LEAKAGE     =          10.8771
        UZF RECHARGE     =   316466080.0000          UZF RECHARGE     =          24.8738
               GW ET     =           0.0000                 GW ET     =           0.0000
     SURFACE LEAKAGE     =           0.0000       SURFACE LEAKAGE     =           0.0000
    SUPPLEMENTARY WELLS  =           0.0000      SUPPLEMENTARY WELLS  =           0.0000

                TOTAL IN =   459327616.0000                  TOTAL IN =          37.3226

          OUT:                                     OUT:
          ----                                     ----
             STORAGE     =   320989824.0000               STORAGE     =          23.6772
       CONSTANT HEAD     =           0.0000         CONSTANT HEAD     =           0.0000
               WELLS     =           0.0000                 WELLS     =           0.0000
     HEAD DEP BOUNDS     =     3479084.5000       HEAD DEP BOUNDS     =           0.2941
      STREAM LEAKAGE     =   133401328.0000        STREAM LEAKAGE     =          12.3471
        UZF RECHARGE     =           0.0000          UZF RECHARGE     =           0.0000
               GW ET     =     1368264.6250                 GW ET     =           1.0000
     SURFACE LEAKAGE     =           0.0000       SURFACE LEAKAGE     =           0.0000
    SUPPLEMENTARY WELLS  =       31277.1836      SUPPLEMENTARY WELLS  =           0.0000

               TOTAL OUT =   459269728.0000                 TOTAL OUT =          37.3184

                IN - OUT =       57888.0000                  IN - OUT =       4.2534E-03

     PERCENT DISCREPANCY =           0.01         PERCENT DISCREPANCY =           0.01






         TIME SUMMARY AT END OF TIME STEP   15 IN STRESS PERIOD    6
                    SECONDS     MINUTES      HOURS       DAYS        YEARS
                    -----------------------------------------------------------
   TIME STEP LENGTH  87600.      1460.0      24.333      1.0139     2.77588E-03
 STRESS PERIOD TIME 1.31400E+06  21900.      365.00      15.208     4.16381E-02
         TOTAL TIME 1.19124E+07 1.98540E+05  3309.0      137.88     0.37748    
1
 
 SOLVING FOR HEAD 
                                                   Max.-Head-Change                         Max.-Flux-Residual
  Residual-Control   Outer-Iter.   Inner-Iter.     Column Row Layer    Maximum-Head-Change  Column Row Layer    Maximum-Flux-Residual          L2-NORM 
          0                 1           2             1   13     1      -0.6748836716E-02       1   13    1        -0.3685248286E+00      0.1648520635E+01
          0                 2           2             1    2     1       0.2324121486E-02       1    2    1         0.6037683445E-01      0.4242469723E+00
          0                 3           2             1    2     1       0.1043769813E-02       1    2    1         0.2712614634E-01      0.1627398971E+00
          0                 4           2             1    2     1       0.4686467537E-03       1    2    1         0.1218136017E-01      0.7094935839E-01
          0                 5           2             1    2     1       0.2103999598E-03       1    2    1         0.5469174836E-02      0.3163838620E-01
          0                 6           1             1    2     1       0.9445605498E-04       1    2    1         0.2455365042E-02      0.1415799398E-01
          0                 7           1             1    2     1       0.4240409190E-04       1    2    1         0.1102295336E-02      0.6339256716E-02
          0                 8           1             1    2     1       0.1903633418E-04       1    2    1         0.4948516907E-03      0.2838777212E-02
          0                 9           1             1    2     1       0.8545902426E-05       1    2    1         0.2221520200E-03      0.1271308843E-02

    ------------------------------------------------
       NWT REQUIRED            9 OUTER ITERATIONS 
       AND A TOTAL OF         14 INNER ITERATIONS.
    ------------------------------------------------

 NO OUTPUT CONTROL FOR STRESS PERIOD    6   TIME STEP   16
 
 SOLVING FOR HEAD 
                                                   Max.-Head-Change                         Max.-Flux-Residual
  Residual-Control   Outer-Iter.   Inner-Iter.     Column Row Layer    Maximum-Head-Change  Column Row Layer    Maximum-Flux-Residual          L2-NORM 
          0                 1           2             1   13     1      -0.6424486765E-02       1   13    1        -0.3508619817E+00      0.1633536408E+01
          0                 2           2             1    2     1       0.2321823989E-02       1    2    1         0.6031710635E-01      0.4230604014E+00
          0                 3           2             1    2     1       0.1042738100E-02       1    2    1         0.2709933525E-01      0.1624043185E+00
          0                 4           2             1    2     1       0.4681833445E-03       1    2    1         0.1216931934E-01      0.7080263538E-01
          0                 5           2             1    2     1       0.2101917946E-03       1    2    1         0.5463766349E-02      0.3157294879E-01
          0                 6           1             1    2     1       0.9436254296E-04       1    2    1         0.2452935493E-02      0.1412882794E-01
          0                 7           1             1    2     1       0.4236208375E-04       1    2    1         0.1101203930E-02      0.6326258575E-02
          0                 8           1             1    2     1       0.1901746330E-04       1    2    1         0.4943614037E-03      0.2832983827E-02
          0                 9           1             1    2     1       0.8537424913E-05       1    2    1         0.2219317671E-03      0.1268726362E-02

    ------------------------------------------------
       NWT REQUIRED            9 OUTER ITERATIONS 
       AND A TOTAL OF         14 INNER ITERATIONS.
    ------------------------------------------------

 NO OUTPUT CONTROL FOR STRESS PERIOD    6   TIME STEP   17
 
 SOLVING FOR HEAD 
                                                   Max.-Head-Change                         Max.-Flux-Residual
  Residual-Control   Outer-Iter.   Inner-Iter.     Column Row Layer    Maximum-Head-Change  Column Row Layer    Maximum-Flux-Residual          L2-NORM 
          0                 1           2             3    2     1       0.6281058034E-02       1   13    1        -0.3339717994E+00      0.1620333361E+01
          0                 2           2             1    2     1       0.2319538214E-02       1    2    1         0.6025768348E-01      0.4219547554E+00
          0                 3           2             1    2     1       0.1041711646E-02       1    2    1         0.2707266090E-01      0.1620760917E+00
          0                 4           2             1    2     1       0.4677222963E-03       1    2    1         0.1215733988E-01      0.7065852550E-01
          0                 5           2             1    2     1       0.2099846894E-03       1    2    1         0.5458385415E-02      0.3150865784E-01
          0                 6           1             1    2     1       0.9426950741E-04       1    2    1         0.2450518323E-02      0.1410016934E-01
          0                 7           1             1    2     1       0.4232028995E-04       1    2    1         0.1100118084E-02      0.6313484422E-02
          0                 8           1             1    2     1       0.1899868796E-04       1    2    1         0.4938736112E-03      0.2827289522E-02
          0                 9           1             1    2     1       0.8528990668E-05       1    2    1         0.2217126418E-03      0.1266187805E-02

    ------------------------------------------------
       NWT REQUIRED            9 OUTER ITERATIONS 
       AND A TOTAL OF         14 INNER ITERATIONS.
    ------------------------------------------------

 NO OUTPUT CONTROL FOR STRESS PERIOD    6   TIME STEP   18
 
 SOLVING FOR HEAD 
                                                   Max.-Head-Change                         Max.-Flux-Residual
  Residual-Control   Outer-Iter.   Inner-Iter.     Column Row Layer    Maximum-Head-Change  Column Row Layer    Maximum-Flux-Residual          L2-NORM 
          0                 1           2             3    2     1       0.6264904978E-02       3    2    1         0.3259297421E+00      0.1608652540E+01
          0                 2           2             1    2     1       0.2317243772E-02       1    2    1         0.6019803622E-01      0.4209221441E+00
          0                 3           2             1    2     1       0.1040681290E-02       1    2    1         0.2704588530E-01      0.1617551410E+00
          0                 4           2             1    2     1       0.4672594961E-03       1    2    1         0.1214531490E-01      0.7051704188E-01
          0                 5           2             1    2     1       0.2097767979E-03       1    2    1         0.5452984032E-02      0.3144551836E-01
          0                 6           1             1    2     1       0.9417611870E-04       1    2    1         0.2448091970E-02      0.1407201912E-01
          0                 7           1             1    2     1       0.4227833732E-04       1    2    1         0.1099028116E-02      0.6300935559E-02
          0                 8           1             1    2     1       0.1897984210E-04       1    2    1         0.4933839737E-03      0.2821695116E-02
          0                 9           1             1    2     1       0.8520524659E-05       1    2    1         0.2214926818E-03      0.1263693134E-02

    ------------------------------------------------
       NWT REQUIRED            9 OUTER ITERATIONS 
       AND A TOTAL OF         14 INNER ITERATIONS.
    ------------------------------------------------

 NO OUTPUT CONTROL FOR STRESS PERIOD    6   TIME STEP   19
 
 SOLVING FOR HEAD 
                                                   Max.-Head-Change                         Max.-Flux-Residual
  Residual-Control   Outer-Iter.   Inner-Iter.     Column Row Layer    Maximum-Head-Change  Column Row Layer    Maximum-Flux-Residual          L2-NORM 
          0                 1           2             3    2     1       0.6249030982E-02       3    2    1         0.3250917465E+00      0.1598274694E+01
          0                 2           2             1    2     1       0.2314981016E-02       1    2    1         0.6013921327E-01      0.4199548871E+00
          0                 3           2             1    2     1       0.1039665157E-02       1    2    1         0.2701947943E-01      0.1614419077E+00
          0                 4           2             1    2     1       0.4668030807E-03       1    2    1         0.1213345585E-01      0.7037837436E-01
          0                 5           2             1    2     1       0.2095717726E-03       1    2    1         0.5447657148E-02      0.3138360185E-01
          0                 6           1             1    2     1       0.9408401731E-04       1    2    1         0.2445699072E-02      0.1404440995E-01
          0                 7           1             1    2     1       0.4223696295E-04       1    2    1         0.1097953170E-02      0.6288626135E-02
          0                 8           1             1    2     1       0.1896125534E-04       1    2    1         0.4929010767E-03      0.2816206550E-02
          0                 9           1             1    2     1       0.8512174952E-05       1    2    1         0.2212757505E-03      0.1261246018E-02

    ------------------------------------------------
       NWT REQUIRED            9 OUTER ITERATIONS 
       AND A TOTAL OF         14 INNER ITERATIONS.
    ------------------------------------------------

 NO OUTPUT CONTROL FOR STRESS PERIOD    6   TIME STEP   20
 
 SOLVING FOR HEAD 
                                                   Max.-Head-Change                         Max.-Flux-Residual
  Residual-Control   Outer-Iter.   Inner-Iter.     Column Row Layer    Maximum-Head-Change  Column Row Layer    Maximum-Flux-Residual          L2-NORM 
          0                 1           2             3    2     1       0.6233514304E-02       3    2    1         0.3242726867E+00      0.1589021711E+01
          0                 2           2             1    2     1       0.2312729496E-02       1    2    1         0.6008068323E-01      0.4190368909E+00
          0                 3           2             1    2     1       0.1038654059E-02       1    2    1         0.2699320458E-01      0.1611339651E+00
          0                 4           2             1    2     1       0.4663489253E-03       1    2    1         0.1212165558E-01      0.7024174605E-01
          0                 5           2             1    2     1       0.2093677628E-03       1    2    1         0.5442356649E-02      0.3132258540E-01
          0                 6           1             1    2     1       0.9399237112E-04       1    2    1         0.2443318017E-02      0.1401719814E-01
          0                 7           1             1    2     1       0.4219579342E-04       1    2    1         0.1096883549E-02      0.6276492392E-02
          0                 8           1             1    2     1       0.1894276113E-04       1    2    1         0.4924205751E-03      0.2810858867E-02
          0                 9           1             1    2     1       0.8503866263E-05       1    2    1         0.2210598908E-03      0.1258997419E-02

    ------------------------------------------------
       NWT REQUIRED            9 OUTER ITERATIONS 
       AND A TOTAL OF         14 INNER ITERATIONS.
    ------------------------------------------------

 NO OUTPUT CONTROL FOR STRESS PERIOD    6   TIME STEP   21
 
 SOLVING FOR HEAD 
                                                   Max.-Head-Change                         Max.-Flux-Residual
  Residual-Control   Outer-Iter.   Inner-Iter.     Column Row Layer    Maximum-Head-Change  Column Row Layer    Maximum-Flux-Residual          L2-NORM 
          0                 1           2             3    2     1       0.6218345506E-02       3    2    1         0.3234720404E+00      0.1580817553E+01
          0                 2           2             1    2     1       0.2310468902E-02       1    2    1         0.6002191773E-01      0.4181707747E+00
          0                 3           2             1    2     1       0.1037638885E-02       1    2    1         0.2696682382E-01      0.1608328759E+00
          0                 4           2             1    2     1       0.4658929396E-03       1    2    1         0.1210980773E-01      0.7010776336E-01
          0                 5           2             1    2     1       0.2091629316E-03       1    2    1         0.5437034800E-02      0.3126273189E-01
          0                 6           1             1    2     1       0.9390035701E-04       1    2    1         0.2440927384E-02      0.1399050032E-01
          0                 7           1             1    2     1       0.4215445832E-04       1    2    1         0.1095809624E-02      0.6264586152E-02
          0                 8           1             1    2     1       0.1892419214E-04       1    2    1         0.4919381418E-03      0.2805486075E-02
          0                 9           1             8    2     1       0.8499739681E-05       1    2    1         0.2208431743E-03      0.1256463842E-02

    ------------------------------------------------
       NWT REQUIRED            9 OUTER ITERATIONS 
       AND A TOTAL OF         14 INNER ITERATIONS.
    ------------------------------------------------

 NO OUTPUT CONTROL FOR STRESS PERIOD    6   TIME STEP   22
 
 SOLVING FOR HEAD 
                                                   Max.-Head-Change                         Max.-Flux-Residual
  Residual-Control   Outer-Iter.   Inner-Iter.     Column Row Layer    Maximum-Head-Change  Column Row Layer    Maximum-Flux-Residual          L2-NORM 
          0                 1           2             3    2     1       0.6203427493E-02       3    2    1         0.3226847571E+00      0.1573515265E+01
          0                 2           2             1    2     1       0.2308219311E-02       1    2    1         0.5996343935E-01      0.4173520295E+00
          0                 3           2             1    2     1       0.1036628640E-02       1    2    1         0.2694057135E-01      0.1605374042E+00
          0                 4           2             1    2     1       0.4654391664E-03       1    2    1         0.1209801738E-01      0.6997586477E-01
          0                 5           2             1    2     1       0.2089590931E-03       1    2    1         0.5431738747E-02      0.3120379037E-01
          0                 6           1             1    2     1       0.9380878861E-04       1    2    1         0.2438548334E-02      0.1396420749E-01
          0                 7           1             1    2     1       0.4211332381E-04       1    2    1         0.1094740905E-02      0.6252859518E-02
          0                 8           1             1    2     1       0.1890571318E-04       1    2    1         0.4914580416E-03      0.2800255198E-02
          0                 9           1             8    2     1       0.8496607791E-05       8    2    1         0.2206662616E-03      0.1254131078E-02

    ------------------------------------------------
       NWT REQUIRED            9 OUTER ITERATIONS 
       AND A TOTAL OF         14 INNER ITERATIONS.
    ------------------------------------------------

 NO OUTPUT CONTROL FOR STRESS PERIOD    6   TIME STEP   23
 
 SOLVING FOR HEAD 
                                                   Max.-Head-Change                         Max.-Flux-Residual
  Residual-Control   Outer-Iter.   Inner-Iter.     Column Row Layer    Maximum-Head-Change  Column Row Layer    Maximum-Flux-Residual          L2-NORM 
          0                 1           2             3    2     1       0.6188927560E-02       3    2    1         0.3219195182E+00      0.1566924909E+01
          0                 2           2             1    2     1       0.2306000843E-02       1    2    1         0.5990577052E-01      0.4165670040E+00
          0                 3           2             1    2     1       0.1035632364E-02       1    2    1         0.2691468202E-01      0.1602471792E+00
          0                 4           2             1    2     1       0.4649916639E-03       1    2    1         0.1208639005E-01      0.6984602837E-01
          0                 5           2             1    2     1       0.2087580708E-03       1    2    1         0.5426515893E-02      0.3114575078E-01
          0                 6           1             1    2     1       0.9371848527E-04       1    2    1         0.2436202152E-02      0.1393830999E-01
          0                 7           1             1    2     1       0.4207275655E-04       1    2    1         0.1093686936E-02      0.6241307481E-02
          0                 8           1             8    2     1       0.1889815258E-04       1    2    1         0.4909845709E-03      0.2795101592E-02
          0                 9           1             8    2     1       0.8493464645E-05       8    2    1         0.2205848534E-03      0.1251832780E-02

    ------------------------------------------------
       NWT REQUIRED            9 OUTER ITERATIONS 
       AND A TOTAL OF         14 INNER ITERATIONS.
    ------------------------------------------------

 NO OUTPUT CONTROL FOR STRESS PERIOD    6   TIME STEP   24
 
 SOLVING FOR HEAD 
                                                   Max.-Head-Change                         Max.-Flux-Residual
  Residual-Control   Outer-Iter.   Inner-Iter.     Column Row Layer    Maximum-Head-Change  Column Row Layer    Maximum-Flux-Residual          L2-NORM 
          0                 1           2             3    2     1       0.6174661748E-02       3    2    1         0.3211667160E+00      0.1561073236E+01
          0                 2           2             1    2     1       0.2303772844E-02       1    2    1         0.5984785445E-01      0.4158170910E+00
          0                 3           2             1    2     1       0.1034631804E-02       1    2    1         0.2688868141E-01      0.1599611676E+00
          0                 4           2             1    2     1       0.4645422382E-03       1    2    1         0.1207471271E-01      0.6971784113E-01
          0                 5           2             1    2     1       0.2085561850E-03       1    2    1         0.5421270587E-02      0.3108844246E-01
          0                 6           1             1    2     1       0.9362779375E-04       1    2    1         0.2433845893E-02      0.1391273905E-01
          0                 7           1             8    2     1       0.4203324701E-04       1    2    1         0.1092628451E-02      0.6229899837E-02
          0                 8           1             8    2     1       0.1889116072E-04       8    2    1         0.4906245885E-03      0.2790013035E-02
          0                 9           1             8    2     1       0.8490311495E-05       8    2    1         0.2205031919E-03      0.1249560902E-02

    ------------------------------------------------
       NWT REQUIRED            9 OUTER ITERATIONS 
       AND A TOTAL OF         14 INNER ITERATIONS.
    ------------------------------------------------

 NO OUTPUT CONTROL FOR STRESS PERIOD    6   TIME STEP   25
 
 SOLVING FOR HEAD 
                                                   Max.-Head-Change                         Max.-Flux-Residual
  Residual-Control   Outer-Iter.   Inner-Iter.     Column Row Layer    Maximum-Head-Change  Column Row Layer    Maximum-Flux-Residual          L2-NORM 
          0                 1           2             3    2     1       0.6160795511E-02       3    2    1         0.3204351139E+00      0.1555846722E+01
          0                 2           2             1    2     1       0.2301555434E-02       1    2    1         0.5979021460E-01      0.4151020818E+00
          0                 3           2             1    2     1       0.1033635989E-02       1    2    1         0.2686280428E-01      0.1596810544E+00
          0                 4           2             1    2     1       0.4640949416E-03       1    2    1         0.1206309074E-01      0.6959201833E-01
          0                 5           2             1    2     1       0.2083552553E-03       1    2    1         0.5416050132E-02      0.3103217399E-01
          0                 6           1             1    2     1       0.9353753168E-04       1    2    1         0.2431500796E-02      0.1388762826E-01
          0                 7           1             8    2     1       0.4201770561E-04       1    2    1         0.1091574984E-02      0.6218695288E-02
          0                 8           1             8    2     1       0.1888415261E-04       8    2    1         0.4904430720E-03      0.2785012909E-02
          0                 9           1             8    2     1       0.8487151342E-05       8    2    1         0.2204213432E-03      0.1247330121E-02

    ------------------------------------------------
       NWT REQUIRED            9 OUTER ITERATIONS 
       AND A TOTAL OF         14 INNER ITERATIONS.
    ------------------------------------------------

 NO OUTPUT CONTROL FOR STRESS PERIOD    6   TIME STEP   26
 
 SOLVING FOR HEAD 
                                                   Max.-Head-Change                         Max.-Flux-Residual
  Residual-Control   Outer-Iter.   Inner-Iter.     Column Row Layer    Maximum-Head-Change  Column Row Layer    Maximum-Flux-Residual          L2-NORM 
          0                 1           2             3    2     1       0.6147145688E-02       3    2    1         0.3197149500E+00      0.1551079798E+01
          0                 2           2             1    2     1       0.2299348552E-02       1    2    1         0.5973284867E-01      0.4144147486E+00
          0                 3           2             1    2     1       0.1032644899E-02       1    2    1         0.2683704999E-01      0.1594060775E+00
          0                 4           2             1    2     1       0.4636497672E-03       1    2    1         0.1205152391E-01      0.6946825227E-01
          0                 5           2             1    2     1       0.2081552785E-03       1    2    1         0.5410854435E-02      0.3097680277E-01
          0                 6           1             8    2     1       0.9345368395E-04       1    2    1         0.2429166814E-02      0.1386291085E-01
          0                 7           1             8    2     1       0.4200120978E-04       8    2    1         0.1090819106E-02      0.6207666689E-02
          0                 8           1             8    2     1       0.1887671656E-04       8    2    1         0.4902504215E-03      0.2780092131E-02
          0                 9           1             8    2     1       0.8483799104E-05       8    2    1         0.2203344972E-03      0.1245133840E-02

    ------------------------------------------------
       NWT REQUIRED            9 OUTER ITERATIONS 
       AND A TOTAL OF         14 INNER ITERATIONS.
    ------------------------------------------------

 NO OUTPUT CONTROL FOR STRESS PERIOD    6   TIME STEP   27
 
 SOLVING FOR HEAD 
                                                   Max.-Head-Change                         Max.-Flux-Residual
  Residual-Control   Outer-Iter.   Inner-Iter.     Column Row Layer    Maximum-Head-Change  Column Row Layer    Maximum-Flux-Residual          L2-NORM 
          0                 1           2             3    2     1       0.6133793936E-02       3    2    1         0.3190105218E+00      0.1562755836E+01
          0                 2           2             1    2     1       0.2297152043E-02       2   13    1         0.7608576951E-01      0.4373925875E+00
          0                 3           2             1    2     1       0.1031658460E-02       1    2    1         0.2681141669E-01      0.1596833139E+00
          0                 4           2             1    2     1       0.4632066802E-03       1    2    1         0.1204001134E-01      0.6936244955E-01
          0                 5           2             1    2     1       0.2079562394E-03       1    2    1         0.5405683103E-02      0.3092479759E-01
          0                 6           1             8    2     1       0.9341901231E-04       1    2    1         0.2426843771E-02      0.1383952029E-01
          0                 7           1             8    2     1       0.4198557459E-04       8    2    1         0.1090414160E-02      0.6197217046E-02
          0                 8           1             8    2     1       0.1886966618E-04       8    2    1         0.4900678202E-03      0.2775426576E-02
          0                 9           1             8    2     1       0.8480620443E-05       8    2    1         0.2202521584E-03      0.1243051327E-02

    ------------------------------------------------
       NWT REQUIRED            9 OUTER ITERATIONS 
       AND A TOTAL OF         14 INNER ITERATIONS.
    ------------------------------------------------

 NO OUTPUT CONTROL FOR STRESS PERIOD    6   TIME STEP   28
 
 SOLVING FOR HEAD 
                                                   Max.-Head-Change                         Max.-Flux-Residual
  Residual-Control   Outer-Iter.   Inner-Iter.     Column Row Layer    Maximum-Head-Change  Column Row Layer    Maximum-Flux-Residual          L2-NORM 
          0                 1           2             2    2     1       0.8627191537E-02       4   13    1         0.4959816298E+00      0.1875883444E+01
          0                 2           2             1    2     1       0.2298104685E-02       7   13    1        -0.8057601633E-01      0.4585599489E+00
          0                 3           2             1    2     1       0.1032291903E-02       1    2    1         0.2682449358E-01      0.1612270494E+00
          0                 4           2             1    2     1       0.4635265682E-03       1    2    1         0.1204774255E-01      0.6943964171E-01
          0                 5           2             1    2     1       0.2081059293E-03       1    2    1         0.5409474590E-02      0.3091713966E-01
          0                 6           1             1    2     1       0.9342650539E-04       1    2    1         0.2428600614E-02      0.1383312735E-01
          0                 7           1             8    2     1       0.4196989513E-04       1    2    1         0.1090280724E-02      0.6194094632E-02
          0                 8           1             8    2     1       0.1886259629E-04       8    2    1         0.4898846924E-03      0.2773984792E-02
          0                 9           1             8    2     1       0.8477432027E-05       8    2    1         0.2201695819E-03      0.1242392517E-02

    ------------------------------------------------
       NWT REQUIRED            9 OUTER ITERATIONS 
       AND A TOTAL OF         14 INNER ITERATIONS.
    ------------------------------------------------

 NO OUTPUT CONTROL FOR STRESS PERIOD    6   TIME STEP   29
 
 SOLVING FOR HEAD 
                                                   Max.-Head-Change                         Max.-Flux-Residual
  Residual-Control   Outer-Iter.   Inner-Iter.     Column Row Layer    Maximum-Head-Change  Column Row Layer    Maximum-Flux-Residual          L2-NORM 
          0                 1           2             4   13     1       0.2271926585E-01       4   13    1         0.1315190165E+01      0.2935373537E+01
          0                 2           2             1    2     1       0.2301400651E-02       2    2    1         0.1056835393E+00      0.4583817732E+00
          0                 3           2             1    2     1       0.1033960793E-02       1    2    1         0.2686475944E-01      0.1627089432E+00
          0                 4           2             1    2     1       0.4643084381E-03       1    2    1         0.1206753006E-01      0.6960869053E-01
          0                 5           2             1    2     1       0.2084625254E-03       1    2    1         0.5418652677E-02      0.3094547330E-01
          0                 6           1             1    2     1       0.9358752863E-04       1    2    1         0.2432771219E-02      0.1384217183E-01
          0                 7           1             1    2     1       0.4201416829E-04       1    2    1         0.1092161367E-02      0.6197771129E-02
          0                 8           1             1    2     1       0.1886117916E-04       1    2    1         0.4903011178E-03      0.2775552572E-02
          0                 9           1             8    2     1       0.8474233857E-05       1    2    1         0.2201077190E-03      0.1243065783E-02

    ------------------------------------------------
       NWT REQUIRED            9 OUTER ITERATIONS 
       AND A TOTAL OF         14 INNER ITERATIONS.
    ------------------------------------------------

 NO OUTPUT CONTROL FOR STRESS PERIOD    6   TIME STEP   30



 STREAM LISTING     PERIOD      6   STEP       30

 LAYER ROW COL. STREAM  RCH.  FLOW INTO     FLOW TO   FLOW OUT OF   OVRLND.     DIRECT     STREAM       STREAM     STREAM     STREAM   STREAMBED  STREAMBED
                SEG.NO.  NO.  STRM. RCH.    AQUIFER    STRM. RCH.    RUNOFF     PRECIP       ET          HEAD       DEPTH      WIDTH   CONDCTNC.   GRADIENT

   1    1    1     1     1    9.9000E+01  4.7281E-01   9.8527E+01  0.000E+00  0.000E+00  0.000E+00  1.09484E+03  1.796E+00  2.191E+01  9.859E-02  1.599E+00
   1    2    2     1     2    9.8527E+01  7.3365E-01   9.7794E+01  0.000E+00  0.000E+00  0.000E+00  1.08985E+03  1.793E+00  2.187E+01  1.531E-01  1.598E+00
   1    3    3     1     3    9.7794E+01  6.2707E-01   9.7166E+01  0.000E+00  0.000E+00  0.000E+00  1.08421E+03  1.791E+00  2.181E+01  1.309E-01  1.597E+00
   1    3    4     1     4    9.7166E+01  5.7859E-01   9.6588E+01  0.000E+00  0.000E+00  0.000E+00  1.07920E+03  1.789E+00  2.177E+01  1.208E-01  1.596E+00
   1    4    5     2     1    9.4588E+01  4.4299E-01   9.4145E+01  0.000E+00  0.000E+00  0.000E+00  1.07461E+03  2.679E+00  1.200E+01  7.800E-02  1.893E+00
   1    5    6     2     2    9.4145E+01  3.4036E-01   9.3805E+01  0.000E+00  0.000E+00  0.000E+00  1.06918E+03  2.673E+00  1.200E+01  6.000E-02  1.891E+00
   1    6    6     2     3    9.3805E+01  3.4001E-01   9.3465E+01  0.000E+00  0.000E+00  0.000E+00  1.06446E+03  2.667E+00  1.200E+01  6.000E-02  1.889E+00
   1    7    6     2     4    9.3465E+01  3.3967E-01   9.3125E+01  0.000E+00  0.000E+00  0.000E+00  1.05974E+03  2.661E+00  1.200E+01  6.000E-02  1.887E+00
   1    8    6     2     5    9.3125E+01  3.3932E-01   9.2786E+01  0.000E+00  0.000E+00  0.000E+00  1.05501E+03  2.655E+00  1.200E+01  6.000E-02  1.885E+00
   1    3    5     3     1    2.0000E+00  2.8252E-01   1.7175E+00  0.000E+00  0.000E+00  0.000E+00  1.07555E+03  1.909E+00  9.636E+00  7.227E-02  1.955E+00
   1    3    6     3     2    1.7175E+00  2.4905E-01   1.4684E+00  0.000E+00  0.000E+00  0.000E+00  1.07264E+03  1.727E+00  8.909E+00  6.682E-02  1.864E+00
   1    3    7     3     3    1.4684E+00  1.9718E-01   1.2712E+00  0.000E+00  0.000E+00  0.000E+00  1.06987E+03  1.555E+00  8.218E+00  5.547E-02  1.777E+00
   1    4    8     3     4    1.2712E+00  2.2567E-01   1.0456E+00  0.000E+00  0.000E+00  0.000E+00  1.06682E+03  1.364E+00  7.455E+00  6.709E-02  1.682E+00
   1    5    8     3     5    1.0456E+00  1.5790E-01   8.8768E-01  0.000E+00  0.000E+00  0.000E+00  1.06362E+03  1.164E+00  6.655E+00  4.991E-02  1.582E+00
   1    6    8     3     6    8.8768E-01  5.5980E-02   8.3170E-01  0.000E+00  0.000E+00  0.000E+00  1.06158E+03  1.036E+00  6.145E+00  1.844E-02  1.518E+00
   1    5   10     4     1    1.0000E+01  9.0919E-02   9.9091E+00  0.000E+00  0.000E+00  0.000E+00  1.07836E+03  6.368E-01  1.000E+01  2.500E-02  1.212E+00
   1    5    9     4     2    9.9091E+00  1.8158E-01   9.7275E+00  0.000E+00  0.000E+00  0.000E+00  1.07154E+03  6.315E-01  1.000E+01  5.000E-02  1.211E+00
   1    6    8     4     3    9.7275E+00  1.2689E-01   9.6006E+00  0.000E+00  0.000E+00  0.000E+00  1.06381E+03  6.256E-01  1.000E+01  3.500E-02  1.209E+00
   1    6    8     5     1    1.0432E+01  2.2686E-01   1.0205E+01  0.000E+00  0.000E+00  0.000E+00  1.05868E+03  6.790E-01  1.542E+01  6.166E-02  1.226E+00
   1    7    7     5     2    1.0205E+01  2.7894E-01   9.9265E+00  0.000E+00  0.000E+00  0.000E+00  1.05417E+03  6.732E-01  1.519E+01  7.594E-02  1.224E+00
   1    8    7     5     3    9.9265E+00  1.9221E-01   9.7343E+00  0.000E+00  0.000E+00  0.000E+00  1.04992E+03  6.676E-01  1.497E+01  5.241E-02  1.223E+00
   1    8    6     5     4    9.7343E+00  1.3577E-01   9.5985E+00  0.000E+00  0.000E+00  0.000E+00  1.04691E+03  6.637E-01  1.482E+01  3.706E-02  1.221E+00
   1    9    6     6     1    1.0238E+02  3.5054E-01   1.0203E+02  0.000E+00  0.000E+00  0.000E+00  1.04557E+03  2.842E+00  1.200E+01  6.000E-02  1.947E+00
   1   10    7     6     2    1.0203E+02  3.5018E-01   1.0168E+02  0.000E+00  0.000E+00  0.000E+00  1.04102E+03  2.836E+00  1.200E+01  6.000E-02  1.945E+00
   1   11    7     6     3    1.0168E+02  3.4983E-01   1.0133E+02  0.000E+00  0.000E+00  0.000E+00  1.03647E+03  2.831E+00  1.200E+01  6.000E-02  1.944E+00
   1   12    7     6     4    1.0133E+02  3.4948E-01   1.0098E+02  0.000E+00  0.000E+00  0.000E+00  1.03192E+03  2.825E+00  1.200E+01  6.000E-02  1.942E+00
   1   13    7     6     5    1.0098E+02  2.9802E-02   1.0095E+02  0.000E+00  0.000E+00  0.000E+00  1.02873E+03  2.822E+00  1.200E+01  2.400E-02  4.139E-01
   1   14    9     7     1    1.5000E+02  1.1735E+00   1.4883E+02  0.000E+00  0.000E+00  0.000E+00  1.03987E+03  2.288E+00  5.530E+01  5.593E-01  6.994E-01
   1   13    8     7     2    1.4883E+02  1.6156E+00   1.4721E+02  0.000E+00  0.000E+00  0.000E+00  1.03478E+03  2.281E+00  5.526E+01  6.149E-01  8.759E-01
   1   13    7     7     3    1.4721E+02  1.2309E+00   1.4598E+02  0.000E+00  0.000E+00  0.000E+00  1.02969E+03  2.273E+00  5.523E+01  5.586E-01  7.345E-01
   1   13    6     8     1    2.4693E+02  1.0218E+00   2.4591E+02  0.000E+00  0.000E+00  0.000E+00  1.02527E+03  3.393E+00  4.920E+01  5.014E-01  6.793E-01
   1   13    5     8     2    2.4591E+02  2.1250E-01   2.4570E+02  0.000E+00  0.000E+00  0.000E+00  1.01902E+03  3.390E+00  4.916E+01  5.009E-01  1.414E-01
   1   13    4     8     3    2.4570E+02 -1.5822E+00   2.4728E+02  0.000E+00  0.000E+00  0.000E+00  1.01277E+03  3.394E+00  4.921E+01  5.014E+00 -1.052E-01
   1   13    3     8     4    2.4728E+02 -2.7024E+00   2.4998E+02  0.000E+00  0.000E+00  0.000E+00  1.00653E+03  3.405E+00  4.937E+01  5.031E+00 -1.791E-01
   1   13    2     8     5    2.4998E+02 -1.4611E+00   2.5145E+02  0.000E+00  0.000E+00  0.000E+00  1.00029E+03  3.415E+00  4.952E+01  5.046E+00 -9.651E-02
   1   13    1     8     6    2.5145E+02 -1.2017E+00   2.5265E+02  0.000E+00  0.000E+00  0.000E+00  9.95297E+02  3.422E+00  4.962E+01  3.034E+00 -1.320E-01
   1    6    8     9     1    0.0000E+00  0.0000E+00   0.0000E+00  0.000E+00  0.000E+00  0.000E+00  1.07850E+03  0.000E+00  4.000E+00  0.000E+00  1.000E+00





UNSATURATED ZONE PACKAGE VOLUMETRIC BUDGET FOR  TIME STEP    30 STRESS PERIOD    6
  ------------------------------------------------------------------------------



     CUMULATIVE VOLUMES      L**3       RATES FOR THIS TIME STEP      L**3/T
     ------------------                 ------------------------

           IN:                                      IN:
           ---                                      ---
        INFILTRATION =      151807.6534          INFILTRATION =       0.0000E+00

          OUT:                                     OUT:
          ----                                     ----
              UZF ET =   114071600.8519                UZF ET =          28.0000
        UZF RECHARGE =   349010072.2317          UZF RECHARGE =          25.2814

            IN - OUT =  -462929865.4303              IN - OUT =         -53.2814

          STORAGE:                                 STORAGE:
          --------                                 --------
      STORAGE CHANGE =  -462909191.7157        STORAGE CHANGE =         -53.2807

 PERCENT DISCREPANCY IS DIFFERENCE BETWEEN IN-OUT MINUS CHANGE IN STORAGE
 DIVIDED BY THE AVERAGE OF IN AND OUT TIMES 100

 PERCENT DISCREPANCY =          -0.00     PERCENT DISCREPANCY =          -0.00






1
  VOLUMETRIC BUDGET FOR ENTIRE MODEL AT END OF TIME STEP   30, STRESS PERIOD   6
  ------------------------------------------------------------------------------

     CUMULATIVE VOLUMES      L**3       RATES FOR THIS TIME STEP      L**3/T
     ------------------                 ------------------------

           IN:                                      IN:
           ---                                      ---
             STORAGE     =     3760884.0000               STORAGE     =           0.0000
       CONSTANT HEAD     =           0.0000         CONSTANT HEAD     =           0.0000
               WELLS     =           0.0000                 WELLS     =           0.0000
     HEAD DEP BOUNDS     =     3689533.5000       HEAD DEP BOUNDS     =           0.2747
      STREAM LEAKAGE     =   151320032.0000        STREAM LEAKAGE     =          13.3001
        UZF RECHARGE     =   349010080.0000          UZF RECHARGE     =          25.2814
               GW ET     =           0.0000                 GW ET     =           0.0000
     SURFACE LEAKAGE     =           0.0000       SURFACE LEAKAGE     =           0.0000
    SUPPLEMENTARY WELLS  =           0.0000      SUPPLEMENTARY WELLS  =           0.0000

                TOTAL IN =   507780544.0000                  TOTAL IN =          38.8563

          OUT:                                     OUT:
          ----                                     ----
             STORAGE     =   352622432.0000               STORAGE     =          30.6124
       CONSTANT HEAD     =           0.0000         CONSTANT HEAD     =           0.0000
               WELLS     =           0.0000                 WELLS     =           0.0000
     HEAD DEP BOUNDS     =     3863645.5000       HEAD DEP BOUNDS     =           0.2923
      STREAM LEAKAGE     =   148517568.0000        STREAM LEAKAGE     =           6.9474
        UZF RECHARGE     =           0.0000          UZF RECHARGE     =           0.0000
               GW ET     =     2682264.5000                 GW ET     =           1.0000
     SURFACE LEAKAGE     =           0.0000       SURFACE LEAKAGE     =           0.0000
    SUPPLEMENTARY WELLS  =       31277.1836      SUPPLEMENTARY WELLS  =           0.0000

               TOTAL OUT =   507717184.0000                 TOTAL OUT =          38.8522

                IN - OUT =       63360.0000                  IN - OUT =       4.1389E-03

     PERCENT DISCREPANCY =           0.01         PERCENT DISCREPANCY =           0.01






         TIME SUMMARY AT END OF TIME STEP   30 IN STRESS PERIOD    6
                    SECONDS     MINUTES      HOURS       DAYS        YEARS
                    -----------------------------------------------------------
   TIME STEP LENGTH  87600.      1460.0      24.333      1.0139     2.77588E-03
 STRESS PERIOD TIME 2.62800E+06  43800.      730.00      30.417     8.32763E-02
         TOTAL TIME 1.32264E+07 2.20440E+05  3674.0      153.08     0.41912    
1
1
                            STRESS PERIOD NO.    7, LENGTH =   2628000.    
                            -----------------------------------------------

                              NUMBER OF TIME STEPS =    30

                               MULTIPLIER FOR DELT =     1.000

                            INITIAL TIME STEP SIZE =   87600.00    

 WELL NO.  LAYER   ROW   COL   STRESS RATE         
 --------------------------------------------------
      1      1      6      4       0.000    
      2      1      6      7       0.000    
      3      1      7      4       0.000    
      4      1      7      5       0.000    
      5      1      8      4       0.000    
      6      1      8      5       0.000    
      7      1      9      4       0.000    
      8      1      9      5       0.000    
      9      1     10      4       0.000    
     10      1     10      5       0.000    

     10 WELLS

 REUSING NON-PARAMETER GHB CELLS FROM LAST STRESS PERIOD

      2 GHB CELLS

 REUSING STREAM SEGMENT DATA FROM LAST STRESS PERIOD



            AREAL INFILTRATION RATE
 READING ON UNIT   19 WITH FORMAT: (10F4.0)            

            1           2           3           4           5           6           7           8           9          10
 ........................................................................................................................
   1    0.000       0.000       0.000       0.000       0.000       0.000       0.000       0.000       0.000       0.000    
   2    0.000       0.000       0.000       0.000       0.000       0.000       0.000       0.000       0.000       0.000    
   3    0.000       0.000       0.000       0.000       0.000       0.000       0.000       0.000       0.000       0.000    
   4    0.000       0.000       0.000       0.000       0.000       0.000       0.000       0.000       0.000       0.000    
   5    0.000       0.000       0.000       0.000       0.000       0.000       0.000       0.000       0.000       0.000    
   6    0.000       0.000       0.000       0.000       0.000       0.000       0.000       0.000       0.000       0.000    
   7    0.000       0.000       0.000       0.000       0.000       0.000       0.000       0.000       0.000       0.000    
   8    0.000       0.000       0.000       0.000       0.000       0.000       0.000       0.000       0.000       0.000    
   9    0.000       0.000       0.000       0.000       0.000       0.000       0.000       0.000       0.000       0.000    
  10    0.000       0.000       0.000       0.000       0.000       0.000       0.000       0.000       0.000       0.000    
  11    0.000       0.000       0.000       0.000       0.000       0.000       0.000       0.000       0.000       0.000    
  12    0.000       0.000       0.000       0.000       0.000       0.000       0.000       0.000       0.000       0.000    
  13    0.000       0.000       0.000       0.000       0.000       0.000       0.000       0.000       0.000       0.000    
  14    0.000       0.000       0.000       0.000       0.000       0.000       0.000       0.000       0.000       0.000    
  15    0.000       0.000       0.000       0.000       0.000       0.000       0.000       0.000       0.000       0.000    

                  ET RATE =  3.000000E-08

 USING ET EXTINCTION DEPTH FROM PREVIOUS STRESS PERIOD. CURRENT PERIOD IS:       7

 USING EXTINCTION WATER CONTENT FROM PREVIOUS STRESS PERIOD. CURRENT PERIOD IS:       7

 PROCESSING AGO STRESS PERIOD DATA

 READING AGO STRESS PERIOD DATA

 READING IRRIGATION STREAM

 READING IRRIGATION WELL

 READING SUPPLEMENTAL WEL

 END PROCESSING AGO STRESS PERIOD DATA OPTIONS
 
 SOLVING FOR HEAD 
                                                   Max.-Head-Change                         Max.-Flux-Residual
  Residual-Control   Outer-Iter.   Inner-Iter.     Column Row Layer    Maximum-Head-Change  Column Row Layer    Maximum-Flux-Residual          L2-NORM 
          0                 1           2             2   13     1       0.1978156957E-01       2   13    1         0.1131109145E+01      0.2410476276E+01
          0                 2           2             1    2     1       0.2304149556E-02       2    2    1         0.1051739659E+00      0.4691699297E+00
          0                 3           2             1    2     1       0.1035192047E-02       1    2    1         0.2689681489E-01      0.1629757722E+00
          0                 4           2             1    2     1       0.4648605355E-03       1    2    1         0.1208189377E-01      0.6960672918E-01
          0                 5           2             1    2     1       0.2087101916E-03       1    2    1         0.5425094397E-02      0.3094259376E-01
          0                 6           1             1    2     1       0.9369864746E-04       1    2    1         0.2435661096E-02      0.1384063048E-01
          0                 7           1             1    2     1       0.4206402692E-04       1    2    1         0.1093457984E-02      0.6196976666E-02
          0                 8           1             1    2     1       0.1888355060E-04       1    2    1         0.4908829003E-03      0.2775153104E-02
          0                 9           1             1    2     1       0.8477242693E-05       1    2    1         0.2203687656E-03      0.1242865880E-02

    ------------------------------------------------
       NWT REQUIRED            9 OUTER ITERATIONS 
       AND A TOTAL OF         14 INNER ITERATIONS.
    ------------------------------------------------

 NO OUTPUT CONTROL FOR STRESS PERIOD    7   TIME STEP    1
 
 SOLVING FOR HEAD 
                                                   Max.-Head-Change                         Max.-Flux-Residual
  Residual-Control   Outer-Iter.   Inner-Iter.     Column Row Layer    Maximum-Head-Change  Column Row Layer    Maximum-Flux-Residual          L2-NORM 
          0                 1           2             2   13     1       0.1787163951E-01       2   13    1         0.1021806776E+01      0.2317897755E+01
          0                 2           2             1    2     1       0.2306878650E-02       2    2    1         0.1046735106E+00      0.4697625923E+00
          0                 3           2             1    2     1       0.1036414440E-02       1    2    1         0.2692863948E-01      0.1629629908E+00
          0                 4           2             1    2     1       0.4654086606E-03       1    2    1         0.1209615415E-01      0.6959733982E-01
          0                 5           2             1    2     1       0.2089560753E-03       1    2    1         0.5431489775E-02      0.3093825308E-01
          0                 6           1             1    2     1       0.9380896644E-04       1    2    1         0.2438530173E-02      0.1383847428E-01
          0                 7           1             1    2     1       0.4211352565E-04       1    2    1         0.1094745258E-02      0.6195903825E-02
          0                 8           1             1    2     1       0.1890576071E-04       1    2    1         0.4914604921E-03      0.2774623074E-02
          0                 9           1             1    2     1       0.8487208618E-05       1    2    1         0.2206279327E-03      0.1242608959E-02

    ------------------------------------------------
       NWT REQUIRED            9 OUTER ITERATIONS 
       AND A TOTAL OF         14 INNER ITERATIONS.
    ------------------------------------------------

 NO OUTPUT CONTROL FOR STRESS PERIOD    7   TIME STEP    2
 
 SOLVING FOR HEAD 
                                                   Max.-Head-Change                         Max.-Flux-Residual
  Residual-Control   Outer-Iter.   Inner-Iter.     Column Row Layer    Maximum-Head-Change  Column Row Layer    Maximum-Flux-Residual          L2-NORM 
          0                 1           2             2   13     1       0.1613348782E-01       2   13    1         0.9223417320E+00      0.2239332305E+01
          0                 2           2             1    2     1       0.2309547935E-02       2    2    1         0.1041827505E+00      0.4706407389E+00
          0                 3           2             1    2     1       0.1037610019E-02       1    2    1         0.2695976649E-01      0.1629528155E+00
          0                 4           2             1    2     1       0.4659447513E-03       1    2    1         0.1211010164E-01      0.6958490931E-01
          0                 5           2             1    2     1       0.2091965568E-03       1    2    1         0.5437744726E-02      0.3093242234E-01
          0                 6           1             1    2     1       0.9391685959E-04       1    2    1         0.2441336203E-02      0.1383564694E-01
          0                 7           1             1    2     1       0.4216193564E-04       1    2    1         0.1096004228E-02      0.6194535249E-02
          0                 8           1             1    2     1       0.1892748160E-04       1    2    1         0.4920253745E-03      0.2773965407E-02
          0                 9           1             1    2     1       0.8496954945E-05       1    2    1         0.2208813978E-03      0.1242296656E-02

    ------------------------------------------------
       NWT REQUIRED            9 OUTER ITERATIONS 
       AND A TOTAL OF         14 INNER ITERATIONS.
    ------------------------------------------------

 NO OUTPUT CONTROL FOR STRESS PERIOD    7   TIME STEP    3
 
 SOLVING FOR HEAD 
                                                   Max.-Head-Change                         Max.-Flux-Residual
  Residual-Control   Outer-Iter.   Inner-Iter.     Column Row Layer    Maximum-Head-Change  Column Row Layer    Maximum-Flux-Residual          L2-NORM 
          0                 1           2             2   13     1       0.1455160696E-01       2   13    1         0.8318256345E+00      0.2172946377E+01
          0                 2           2             1    2     1       0.2312178346E-02       2    2    1         0.1037006808E+00      0.4716944058E+00
          0                 3           2             1    2     1       0.1038788176E-02       1    2    1         0.2699044014E-01      0.1629417292E+00
          0                 4           2             1    2     1       0.4664730254E-03       1    2    1         0.1212384587E-01      0.6956981276E-01
          0                 5           2             1    2     1       0.2094335290E-03       1    2    1         0.5443908455E-02      0.3092539041E-01
          0                 6           1             1    2     1       0.9402317729E-04       1    2    1         0.2444101285E-02      0.1383229506E-01
          0                 7           1             1    2     1       0.4220963807E-04       1    2    1         0.1097244813E-02      0.6192934503E-02
          0                 8           1             1    2     1       0.1894888560E-04       1    2    1         0.4925820049E-03      0.2773205057E-02
          0                 9           1             1    2     1       0.8506558459E-05       1    2    1         0.2211311462E-03      0.1241935756E-02

    ------------------------------------------------
       NWT REQUIRED            9 OUTER ITERATIONS 
       AND A TOTAL OF         14 INNER ITERATIONS.
    ------------------------------------------------

 NO OUTPUT CONTROL FOR STRESS PERIOD    7   TIME STEP    4
 
 SOLVING FOR HEAD 
                                                   Max.-Head-Change                         Max.-Flux-Residual
  Residual-Control   Outer-Iter.   Inner-Iter.     Column Row Layer    Maximum-Head-Change  Column Row Layer    Maximum-Flux-Residual          L2-NORM 
          0                 1           2             2   13     1       0.1311184955E-01       2   13    1         0.7494479494E+00      0.2117081756E+01
          0                 2           2             1    2     1       0.2314790831E-02       2    2    1         0.1032278865E+00      0.4728624417E+00
          0                 3           2             1    2     1       0.1039958322E-02       1    2    1         0.2702090495E-01      0.1629288145E+00
          0                 4           2             1    2     1       0.4669977086E-03       1    2    1         0.1213749668E-01      0.6955214606E-01
          0                 5           2             1    2     1       0.2096688900E-03       1    2    1         0.5450030294E-02      0.3091713545E-01
          0                 6           1             1    2     1       0.9412877193E-04       1    2    1         0.2446847562E-02      0.1382839072E-01
          0                 7           1             1    2     1       0.4225701536E-04       1    2    1         0.1098476947E-02      0.6191089074E-02
          0                 8           1             1    2     1       0.1897014304E-04       1    2    1         0.4931348368E-03      0.2772337922E-02
          0                 9           1             1    2     1       0.8516096443E-05       1    2    1         0.2213791958E-03      0.1241532035E-02

    ------------------------------------------------
       NWT REQUIRED            9 OUTER ITERATIONS 
       AND A TOTAL OF         14 INNER ITERATIONS.
    ------------------------------------------------

 OUTPUT CONTROL FOR STRESS PERIOD    7   TIME STEP    5
    PRINT BUDGET
    SAVE BUDGET
 UBUDSV SAVING "         STORAGE" ON UNIT102 AT TIME STEP     5, STRESS PERIOD    7
 UBUDSV SAVING "   CONSTANT HEAD" ON UNIT102 AT TIME STEP     5, STRESS PERIOD    7
 UBUDSV SAVING "FLOW RIGHT FACE " ON UNIT102 AT TIME STEP     5, STRESS PERIOD    7
 UBUDSV SAVING "FLOW FRONT FACE " ON UNIT102 AT TIME STEP     5, STRESS PERIOD    7

  HEAD DEP BOUNDS   PERIOD    7   STEP     5
 BOUNDARY      1   LAYER   1   ROW    13   COL     1   RATE   -0.292762    
 BOUNDARY      2   LAYER   1   ROW    14   COL     9   RATE    0.274649    



 STREAM LISTING     PERIOD      7   STEP        5

 LAYER ROW COL. STREAM  RCH.  FLOW INTO     FLOW TO   FLOW OUT OF   OVRLND.     DIRECT     STREAM       STREAM     STREAM     STREAM   STREAMBED  STREAMBED
                SEG.NO.  NO.  STRM. RCH.    AQUIFER    STRM. RCH.    RUNOFF     PRECIP       ET          HEAD       DEPTH      WIDTH   CONDCTNC.   GRADIENT

   1    1    1     1     1    9.9000E+01  4.7281E-01   9.8527E+01  0.000E+00  0.000E+00  0.000E+00  1.09484E+03  1.796E+00  2.191E+01  9.859E-02  1.599E+00
   1    2    2     1     2    9.8527E+01  7.3365E-01   9.7794E+01  0.000E+00  0.000E+00  0.000E+00  1.08985E+03  1.793E+00  2.187E+01  1.531E-01  1.598E+00
   1    3    3     1     3    9.7794E+01  6.2707E-01   9.7166E+01  0.000E+00  0.000E+00  0.000E+00  1.08421E+03  1.791E+00  2.181E+01  1.309E-01  1.597E+00
   1    3    4     1     4    9.7166E+01  5.7859E-01   9.6588E+01  0.000E+00  0.000E+00  0.000E+00  1.07920E+03  1.789E+00  2.177E+01  1.208E-01  1.596E+00
   1    4    5     2     1    9.4588E+01  4.4299E-01   9.4145E+01  0.000E+00  0.000E+00  0.000E+00  1.07461E+03  2.679E+00  1.200E+01  7.800E-02  1.893E+00
   1    5    6     2     2    9.4145E+01  3.4036E-01   9.3805E+01  0.000E+00  0.000E+00  0.000E+00  1.06918E+03  2.673E+00  1.200E+01  6.000E-02  1.891E+00
   1    6    6     2     3    9.3805E+01  3.4001E-01   9.3465E+01  0.000E+00  0.000E+00  0.000E+00  1.06446E+03  2.667E+00  1.200E+01  6.000E-02  1.889E+00
   1    7    6     2     4    9.3465E+01  3.3967E-01   9.3125E+01  0.000E+00  0.000E+00  0.000E+00  1.05974E+03  2.661E+00  1.200E+01  6.000E-02  1.887E+00
   1    8    6     2     5    9.3125E+01  3.3932E-01   9.2786E+01  0.000E+00  0.000E+00  0.000E+00  1.05501E+03  2.655E+00  1.200E+01  6.000E-02  1.885E+00
   1    3    5     3     1    2.0000E+00  2.8252E-01   1.7175E+00  0.000E+00  0.000E+00  0.000E+00  1.07555E+03  1.909E+00  9.636E+00  7.227E-02  1.955E+00
   1    3    6     3     2    1.7175E+00  2.4905E-01   1.4684E+00  0.000E+00  0.000E+00  0.000E+00  1.07264E+03  1.727E+00  8.909E+00  6.682E-02  1.864E+00
   1    3    7     3     3    1.4684E+00  1.9718E-01   1.2712E+00  0.000E+00  0.000E+00  0.000E+00  1.06987E+03  1.555E+00  8.218E+00  5.547E-02  1.777E+00
   1    4    8     3     4    1.2712E+00  2.2567E-01   1.0456E+00  0.000E+00  0.000E+00  0.000E+00  1.06682E+03  1.364E+00  7.455E+00  6.709E-02  1.682E+00
   1    5    8     3     5    1.0456E+00  1.5790E-01   8.8768E-01  0.000E+00  0.000E+00  0.000E+00  1.06362E+03  1.164E+00  6.655E+00  4.991E-02  1.582E+00
   1    6    8     3     6    8.8768E-01  5.5980E-02   8.3170E-01  0.000E+00  0.000E+00  0.000E+00  1.06158E+03  1.036E+00  6.145E+00  1.844E-02  1.518E+00
   1    5   10     4     1    1.0000E+01  9.0919E-02   9.9091E+00  0.000E+00  0.000E+00  0.000E+00  1.07836E+03  6.368E-01  1.000E+01  2.500E-02  1.212E+00
   1    5    9     4     2    9.9091E+00  1.8158E-01   9.7275E+00  0.000E+00  0.000E+00  0.000E+00  1.07154E+03  6.315E-01  1.000E+01  5.000E-02  1.211E+00
   1    6    8     4     3    9.7275E+00  1.2689E-01   9.6006E+00  0.000E+00  0.000E+00  0.000E+00  1.06381E+03  6.256E-01  1.000E+01  3.500E-02  1.209E+00
   1    6    8     5     1    1.0432E+01  2.2686E-01   1.0205E+01  0.000E+00  0.000E+00  0.000E+00  1.05868E+03  6.790E-01  1.542E+01  6.166E-02  1.226E+00
   1    7    7     5     2    1.0205E+01  2.7894E-01   9.9265E+00  0.000E+00  0.000E+00  0.000E+00  1.05417E+03  6.732E-01  1.519E+01  7.594E-02  1.224E+00
   1    8    7     5     3    9.9265E+00  1.9221E-01   9.7343E+00  0.000E+00  0.000E+00  0.000E+00  1.04992E+03  6.676E-01  1.497E+01  5.241E-02  1.223E+00
   1    8    6     5     4    9.7343E+00  1.3577E-01   9.5985E+00  0.000E+00  0.000E+00  0.000E+00  1.04691E+03  6.637E-01  1.482E+01  3.706E-02  1.221E+00
   1    9    6     6     1    1.0238E+02  3.5054E-01   1.0203E+02  0.000E+00  0.000E+00  0.000E+00  1.04557E+03  2.842E+00  1.200E+01  6.000E-02  1.947E+00
   1   10    7     6     2    1.0203E+02  3.5018E-01   1.0168E+02  0.000E+00  0.000E+00  0.000E+00  1.04102E+03  2.836E+00  1.200E+01  6.000E-02  1.945E+00
   1   11    7     6     3    1.0168E+02  3.4983E-01   1.0133E+02  0.000E+00  0.000E+00  0.000E+00  1.03647E+03  2.831E+00  1.200E+01  6.000E-02  1.944E+00
   1   12    7     6     4    1.0133E+02  3.4948E-01   1.0098E+02  0.000E+00  0.000E+00  0.000E+00  1.03192E+03  2.825E+00  1.200E+01  6.000E-02  1.942E+00
   1   13    7     6     5    1.0098E+02  2.9555E-02   1.0095E+02  0.000E+00  0.000E+00  0.000E+00  1.02873E+03  2.822E+00  1.200E+01  2.400E-02  4.105E-01
   1   14    9     7     1    1.5000E+02  1.1726E+00   1.4883E+02  0.000E+00  0.000E+00  0.000E+00  1.03987E+03  2.288E+00  5.530E+01  5.593E-01  6.988E-01
   1   13    8     7     2    1.4883E+02  1.6134E+00   1.4721E+02  0.000E+00  0.000E+00  0.000E+00  1.03478E+03  2.281E+00  5.526E+01  6.149E-01  8.747E-01
   1   13    7     7     3    1.4721E+02  1.2252E+00   1.4599E+02  0.000E+00  0.000E+00  0.000E+00  1.02969E+03  2.273E+00  5.523E+01  5.586E-01  7.311E-01
   1   13    6     8     1    2.4694E+02  1.0096E+00   2.4593E+02  0.000E+00  0.000E+00  0.000E+00  1.02527E+03  3.393E+00  4.920E+01  5.014E-01  6.712E-01
   1   13    5     8     2    2.4593E+02  2.2531E-01   2.4571E+02  0.000E+00  0.000E+00  0.000E+00  1.01902E+03  3.390E+00  4.916E+01  5.009E-01  1.499E-01
   1   13    4     8     3    2.4571E+02 -1.8284E+00   2.4754E+02  0.000E+00  0.000E+00  0.000E+00  1.01277E+03  3.394E+00  4.922E+01  5.015E+00 -1.215E-01
   1   13    3     8     4    2.4754E+02 -2.9260E+00   2.5046E+02  0.000E+00  0.000E+00  0.000E+00  1.00653E+03  3.406E+00  4.939E+01  5.033E+00 -1.938E-01
   1   13    2     8     5    2.5046E+02 -1.8643E+00   2.5233E+02  0.000E+00  0.000E+00  0.000E+00  1.00029E+03  3.419E+00  4.957E+01  5.051E+00 -1.230E-01
   1   13    1     8     6    2.5233E+02 -1.2233E+00   2.5355E+02  0.000E+00  0.000E+00  0.000E+00  9.95302E+02  3.427E+00  4.969E+01  3.038E+00 -1.342E-01
   1    6    8     9     1    1.7735E-06  0.0000E+00   1.7735E-06  0.000E+00  0.000E+00  0.000E+00  1.07850E+03  4.469E-05  4.000E+00  0.000E+00  1.000E+00



 UBDSV3 SAVING "     NETRECHARGE" ON UNIT 100 AT TIME STEP     5, STRESS PERIOD   7
 UBDSV3 SAVING "    NETDISCHARGE" ON UNIT 101 AT TIME STEP     5, STRESS PERIOD   7
 UBDSV3 SAVING "           GW ET" ON UNIT  61 AT TIME STEP     5, STRESS PERIOD   7
 UBDSV3 SAVING "    UZF RECHARGE" ON UNIT  61 AT TIME STEP     5, STRESS PERIOD   7
 UBDSV3 SAVING " SURFACE LEAKAGE" ON UNIT  61 AT TIME STEP     5, STRESS PERIOD   7
 UBDSV3 SAVING "       HORT+DUNN" ON UNIT  61 AT TIME STEP     5, STRESS PERIOD   7
 UBDSV3 SAVING "  STORAGE CHANGE" ON UNIT  61 AT TIME STEP     5, STRESS PERIOD   7


UNSATURATED ZONE PACKAGE VOLUMETRIC BUDGET FOR  TIME STEP     5 STRESS PERIOD    7
  ------------------------------------------------------------------------------



     CUMULATIVE VOLUMES      L**3       RATES FOR THIS TIME STEP      L**3/T
     ------------------                 ------------------------

           IN:                                      IN:
           ---                                      ---
        INFILTRATION =      151808.4129          INFILTRATION =           0.0000

          OUT:                                     OUT:
          ----                                     ----
              UZF ET =   150863596.4769                UZF ET =          84.0000
        UZF RECHARGE =   360072252.3304          UZF RECHARGE =          25.2398

            IN - OUT =  -510784040.3944              IN - OUT =        -109.2398

          STORAGE:                                 STORAGE:
          --------                                 --------
      STORAGE CHANGE =  -510762573.2295        STORAGE CHANGE =        -109.2382

 PERCENT DISCREPANCY IS DIFFERENCE BETWEEN IN-OUT MINUS CHANGE IN STORAGE
 DIVIDED BY THE AVERAGE OF IN AND OUT TIMES 100

 PERCENT DISCREPANCY =          -0.00     PERCENT DISCREPANCY =          -0.00






1
  VOLUMETRIC BUDGET FOR ENTIRE MODEL AT END OF TIME STEP    5, STRESS PERIOD   7
  ------------------------------------------------------------------------------

     CUMULATIVE VOLUMES      L**3       RATES FOR THIS TIME STEP      L**3/T
     ------------------                 ------------------------

           IN:                                      IN:
           ---                                      ---
             STORAGE     =     3888555.7500               STORAGE     =           0.2419
       CONSTANT HEAD     =           0.0000         CONSTANT HEAD     =           0.0000
               WELLS     =           0.0000                 WELLS     =           0.0000
     HEAD DEP BOUNDS     =     3809841.0000       HEAD DEP BOUNDS     =           0.2746
      STREAM LEAKAGE     =   157143328.0000        STREAM LEAKAGE     =          13.2916
        UZF RECHARGE     =   360072256.0000          UZF RECHARGE     =          25.2398
               GW ET     =           0.0000                 GW ET     =           0.0000
     SURFACE LEAKAGE     =           0.0000       SURFACE LEAKAGE     =           0.0000
    SUPPLEMENTARY WELLS  =           0.0000      SUPPLEMENTARY WELLS  =           0.0000

                TOTAL IN =   524913984.0000                  TOTAL IN =          39.0480

          OUT:                                     OUT:
          ----                                     ----
             STORAGE     =   365019648.0000               STORAGE     =          27.9090
       CONSTANT HEAD     =           0.0000         CONSTANT HEAD     =           0.0000
               WELLS     =           0.0000                 WELLS     =           0.0000
     HEAD DEP BOUNDS     =     3991800.5000       HEAD DEP BOUNDS     =           0.2928
      STREAM LEAKAGE     =   151809856.0000        STREAM LEAKAGE     =           7.8421
        UZF RECHARGE     =           0.0000          UZF RECHARGE     =           0.0000
               GW ET     =     3996264.5000                 GW ET     =           3.0000
     SURFACE LEAKAGE     =           0.0000       SURFACE LEAKAGE     =           0.0000
    SUPPLEMENTARY WELLS  =       31277.2520      SUPPLEMENTARY WELLS  =       1.5764E-07

               TOTAL OUT =   524848832.0000                 TOTAL OUT =          39.0438

                IN - OUT =       65152.0000                  IN - OUT =       4.1389E-03

     PERCENT DISCREPANCY =           0.01         PERCENT DISCREPANCY =           0.01






         TIME SUMMARY AT END OF TIME STEP    5 IN STRESS PERIOD    7
                    SECONDS     MINUTES      HOURS       DAYS        YEARS
                    -----------------------------------------------------------
   TIME STEP LENGTH  87600.      1460.0      24.333      1.0139     2.77588E-03
 STRESS PERIOD TIME 4.38000E+05  7300.0      121.67      5.0694     1.38794E-02
         TOTAL TIME 1.36644E+07 2.27740E+05  3795.7      158.15     0.43300    
1
 
 SOLVING FOR HEAD 
                                                   Max.-Head-Change                         Max.-Flux-Residual
  Residual-Control   Outer-Iter.   Inner-Iter.     Column Row Layer    Maximum-Head-Change  Column Row Layer    Maximum-Flux-Residual          L2-NORM 
          0                 1           2             2   13     1       0.1180153675E-01       2   13    1         0.6744823708E+00      0.2070207804E+01
          0                 2           2             1    2     1       0.2317345277E-02       2    2    1         0.1027633632E+00      0.4740944812E+00
          0                 3           2             1    2     1       0.1041102442E-02       1    2    1         0.2705069277E-01      0.1629121957E+00
          0                 4           2             1    2     1       0.4675107111E-03       1    2    1         0.1215084380E-01      0.6953142078E-01
          0                 5           2             1    2     1       0.2098990069E-03       1    2    1         0.5456015825E-02      0.3090746311E-01
          0                 6           1             1    2     1       0.9423201151E-04       1    2    1         0.2449532646E-02      0.1382386029E-01
          0                 7           1             1    2     1       0.4230333617E-04       1    2    1         0.1099681619E-02      0.6188966702E-02
          0                 8           1             1    2     1       0.1899092577E-04       1    2    1         0.4936753374E-03      0.2771345036E-02
          0                 9           1             1    2     1       0.8525421834E-05       1    2    1         0.2216217100E-03      0.1241093012E-02

    ------------------------------------------------
       NWT REQUIRED            9 OUTER ITERATIONS 
       AND A TOTAL OF         14 INNER ITERATIONS.
    ------------------------------------------------

 NO OUTPUT CONTROL FOR STRESS PERIOD    7   TIME STEP    6
 
 SOLVING FOR HEAD 
                                                   Max.-Head-Change                         Max.-Flux-Residual
  Residual-Control   Outer-Iter.   Inner-Iter.     Column Row Layer    Maximum-Head-Change  Column Row Layer    Maximum-Flux-Residual          L2-NORM 
          0                 1           2             2    2     1       0.1129537433E-01       2   13    1         0.6062425398E+00      0.2030879831E+01
          0                 2           2             1    2     1       0.2319882914E-02       2    2    1         0.1023069187E+00      0.4753128909E+00
          0                 3           2             1    2     1       0.1042239045E-02       1    2    1         0.2708028472E-01      0.1628886816E+00
          0                 4           2             1    2     1       0.4680203438E-03       1    2    1         0.1216410326E-01      0.6950788492E-01
          0                 5           2             1    2     1       0.2101276119E-03       1    2    1         0.5461962036E-02      0.3089659099E-01
          0                 6           1             1    2     1       0.9433457255E-04       1    2    1         0.2452200075E-02      0.1381880537E-01
          0                 7           1             1    2     1       0.4234935110E-04       1    2    1         0.1100878349E-02      0.6186613651E-02
          0                 8           1             1    2     1       0.1901157193E-04       1    2    1         0.4942122761E-03      0.2770252040E-02
          0                 9           1             1    2     1       0.8534684696E-05       1    2    1         0.2218626187E-03      0.1240560520E-02

    ------------------------------------------------
       NWT REQUIRED            9 OUTER ITERATIONS 
       AND A TOTAL OF         14 INNER ITERATIONS.
    ------------------------------------------------

 NO OUTPUT CONTROL FOR STRESS PERIOD    7   TIME STEP    7
 
 SOLVING FOR HEAD 
                                                   Max.-Head-Change                         Max.-Flux-Residual
  Residual-Control   Outer-Iter.   Inner-Iter.     Column Row Layer    Maximum-Head-Change  Column Row Layer    Maximum-Flux-Residual          L2-NORM 
          0                 1           2             2    2     1       0.1124566402E-01       2    2    1         0.5860952249E+00      0.1998123169E+01
          0                 2           2             1    2     1       0.2322383977E-02       2    2    1         0.1018591599E+00      0.4765402228E+00
          0                 3           2             1    2     1       0.1043359263E-02       1    2    1         0.2710945020E-01      0.1628629053E+00
          0                 4           2             1    2     1       0.4685226251E-03       1    2    1         0.1217717155E-01      0.6948240376E-01
          0                 5           2             1    2     1       0.2103529162E-03       1    2    1         0.5467822459E-02      0.3088478144E-01
          0                 6           1             1    2     1       0.9443565167E-04       1    2    1         0.2454828999E-02      0.1381333225E-01
          0                 7           1             1    2     1       0.4239470148E-04       1    2    1         0.1102057803E-02      0.6184075760E-02
          0                 8           1             1    2     1       0.1903191947E-04       1    2    1         0.4947414554E-03      0.2769077410E-02
          0                 9           1             1    2     1       0.8543814249E-05       1    2    1         0.2221000464E-03      0.1240018753E-02

    ------------------------------------------------
       NWT REQUIRED            9 OUTER ITERATIONS 
       AND A TOTAL OF         14 INNER ITERATIONS.
    ------------------------------------------------

 NO OUTPUT CONTROL FOR STRESS PERIOD    7   TIME STEP    8
 
 SOLVING FOR HEAD 
                                                   Max.-Head-Change                         Max.-Flux-Residual
  Residual-Control   Outer-Iter.   Inner-Iter.     Column Row Layer    Maximum-Head-Change  Column Row Layer    Maximum-Flux-Residual          L2-NORM 
          0                 1           2             2    2     1       0.1119689783E-01       2    2    1         0.5835292715E+00      0.1970858878E+01
          0                 2           2             1    2     1       0.2324828705E-02       2    2    1         0.1014198949E+00      0.4780947567E+00
          0                 3           2             1    2     1       0.1044454219E-02       1    2    1         0.2713795855E-01      0.1627461733E+00
          0                 4           2             1    2     1       0.4690135691E-03       1    2    1         0.1218994509E-01      0.6945288655E-01
          0                 5           2             1    2     1       0.2105731317E-03       1    2    1         0.5473550591E-02      0.3087188153E-01
          0                 6           1             1    2     1       0.9453444553E-04       1    2    1         0.2457398524E-02      0.1380739190E-01
          0                 7           1             1    2     1       0.4243902616E-04       1    2    1         0.1103210584E-02      0.6181331844E-02
          0                 8           1             1    2     1       0.1905180580E-04       1    2    1         0.4952586511E-03      0.2767812060E-02
          0                 9           1             1    2     1       0.8552736461E-05       1    2    1         0.2223320940E-03      0.1239436228E-02

    ------------------------------------------------
       NWT REQUIRED            9 OUTER ITERATIONS 
       AND A TOTAL OF         14 INNER ITERATIONS.
    ------------------------------------------------

 NO OUTPUT CONTROL FOR STRESS PERIOD    7   TIME STEP    9
 
 SOLVING FOR HEAD 
                                                   Max.-Head-Change                         Max.-Flux-Residual
  Residual-Control   Outer-Iter.   Inner-Iter.     Column Row Layer    Maximum-Head-Change  Column Row Layer    Maximum-Flux-Residual          L2-NORM 
          0                 1           2             2    2     1       0.1114896658E-01       2    2    1         0.5810073740E+00      0.1947518482E+01
          0                 2           2             1    2     1       0.2327258348E-02       2    2    1         0.1009881381E+00      0.4827154985E+00
          0                 3           2             1    2     1       0.1045542433E-02       1    2    1         0.2716629116E-01      0.1627154455E+00
          0                 4           2             1    2     1       0.4695014909E-03       1    2    1         0.1220263999E-01      0.6942359896E-01
          0                 5           2             1    2     1       0.2107919906E-03       1    2    1         0.5479243457E-02      0.3085852023E-01
          0                 6           1             1    2     1       0.9463263063E-04       1    2    1         0.2459952222E-02      0.1380123957E-01
          0                 7           1             1    2     1       0.4248307697E-04       1    2    1         0.1104356256E-02      0.6178496266E-02
          0                 8           1             1    2     1       0.1907156957E-04       1    2    1         0.4957726611E-03      0.2766566108E-02
          0                 9           1             1    2     1       0.8561603898E-05       1    2    1         0.2225627101E-03      0.1238975447E-02

    ------------------------------------------------
       NWT REQUIRED            9 OUTER ITERATIONS 
       AND A TOTAL OF         14 INNER ITERATIONS.
    ------------------------------------------------

 OUTPUT CONTROL FOR STRESS PERIOD    7   TIME STEP   10
    PRINT BUDGET
    SAVE BUDGET
 UBUDSV SAVING "         STORAGE" ON UNIT102 AT TIME STEP    10, STRESS PERIOD    7
 UBUDSV SAVING "   CONSTANT HEAD" ON UNIT102 AT TIME STEP    10, STRESS PERIOD    7
 UBUDSV SAVING "FLOW RIGHT FACE " ON UNIT102 AT TIME STEP    10, STRESS PERIOD    7
 UBUDSV SAVING "FLOW FRONT FACE " ON UNIT102 AT TIME STEP    10, STRESS PERIOD    7

  HEAD DEP BOUNDS   PERIOD    7   STEP    10
 BOUNDARY      1   LAYER   1   ROW    13   COL     1   RATE   -0.293174    
 BOUNDARY      2   LAYER   1   ROW    14   COL     9   RATE    0.274589    



 STREAM LISTING     PERIOD      7   STEP       10

 LAYER ROW COL. STREAM  RCH.  FLOW INTO     FLOW TO   FLOW OUT OF   OVRLND.     DIRECT     STREAM       STREAM     STREAM     STREAM   STREAMBED  STREAMBED
                SEG.NO.  NO.  STRM. RCH.    AQUIFER    STRM. RCH.    RUNOFF     PRECIP       ET          HEAD       DEPTH      WIDTH   CONDCTNC.   GRADIENT

   1    1    1     1     1    9.9000E+01  4.7281E-01   9.8527E+01  0.000E+00  0.000E+00  0.000E+00  1.09484E+03  1.796E+00  2.191E+01  9.859E-02  1.599E+00
   1    2    2     1     2    9.8527E+01  7.3365E-01   9.7794E+01  0.000E+00  0.000E+00  0.000E+00  1.08985E+03  1.793E+00  2.187E+01  1.531E-01  1.598E+00
   1    3    3     1     3    9.7794E+01  6.2707E-01   9.7166E+01  0.000E+00  0.000E+00  0.000E+00  1.08421E+03  1.791E+00  2.181E+01  1.309E-01  1.597E+00
   1    3    4     1     4    9.7166E+01  5.7859E-01   9.6588E+01  0.000E+00  0.000E+00  0.000E+00  1.07920E+03  1.789E+00  2.177E+01  1.208E-01  1.596E+00
   1    4    5     2     1    9.4588E+01  4.4299E-01   9.4145E+01  0.000E+00  0.000E+00  0.000E+00  1.07461E+03  2.679E+00  1.200E+01  7.800E-02  1.893E+00
   1    5    6     2     2    9.4145E+01  3.4036E-01   9.3805E+01  0.000E+00  0.000E+00  0.000E+00  1.06918E+03  2.673E+00  1.200E+01  6.000E-02  1.891E+00
   1    6    6     2     3    9.3805E+01  3.4001E-01   9.3465E+01  0.000E+00  0.000E+00  0.000E+00  1.06446E+03  2.667E+00  1.200E+01  6.000E-02  1.889E+00
   1    7    6     2     4    9.3465E+01  3.3967E-01   9.3125E+01  0.000E+00  0.000E+00  0.000E+00  1.05974E+03  2.661E+00  1.200E+01  6.000E-02  1.887E+00
   1    8    6     2     5    9.3125E+01  3.3932E-01   9.2786E+01  0.000E+00  0.000E+00  0.000E+00  1.05501E+03  2.655E+00  1.200E+01  6.000E-02  1.885E+00
   1    3    5     3     1    2.0000E+00  2.8252E-01   1.7175E+00  0.000E+00  0.000E+00  0.000E+00  1.07555E+03  1.909E+00  9.636E+00  7.227E-02  1.955E+00
   1    3    6     3     2    1.7175E+00  2.4905E-01   1.4684E+00  0.000E+00  0.000E+00  0.000E+00  1.07264E+03  1.727E+00  8.909E+00  6.682E-02  1.864E+00
   1    3    7     3     3    1.4684E+00  1.9718E-01   1.2712E+00  0.000E+00  0.000E+00  0.000E+00  1.06987E+03  1.555E+00  8.218E+00  5.547E-02  1.777E+00
   1    4    8     3     4    1.2712E+00  2.2567E-01   1.0456E+00  0.000E+00  0.000E+00  0.000E+00  1.06682E+03  1.364E+00  7.455E+00  6.709E-02  1.682E+00
   1    5    8     3     5    1.0456E+00  1.5790E-01   8.8768E-01  0.000E+00  0.000E+00  0.000E+00  1.06362E+03  1.164E+00  6.655E+00  4.991E-02  1.582E+00
   1    6    8     3     6    8.8768E-01  5.5980E-02   8.3170E-01  0.000E+00  0.000E+00  0.000E+00  1.06158E+03  1.036E+00  6.145E+00  1.844E-02  1.518E+00
   1    5   10     4     1    1.0000E+01  9.0919E-02   9.9091E+00  0.000E+00  0.000E+00  0.000E+00  1.07836E+03  6.368E-01  1.000E+01  2.500E-02  1.212E+00
   1    5    9     4     2    9.9091E+00  1.8158E-01   9.7275E+00  0.000E+00  0.000E+00  0.000E+00  1.07154E+03  6.315E-01  1.000E+01  5.000E-02  1.211E+00
   1    6    8     4     3    9.7275E+00  1.2689E-01   9.6006E+00  0.000E+00  0.000E+00  0.000E+00  1.06381E+03  6.256E-01  1.000E+01  3.500E-02  1.209E+00
   1    6    8     5     1    1.0432E+01  2.2686E-01   1.0205E+01  0.000E+00  0.000E+00  0.000E+00  1.05868E+03  6.790E-01  1.542E+01  6.166E-02  1.226E+00
   1    7    7     5     2    1.0205E+01  2.7894E-01   9.9265E+00  0.000E+00  0.000E+00  0.000E+00  1.05417E+03  6.732E-01  1.519E+01  7.594E-02  1.224E+00
   1    8    7     5     3    9.9265E+00  1.9221E-01   9.7343E+00  0.000E+00  0.000E+00  0.000E+00  1.04992E+03  6.676E-01  1.497E+01  5.241E-02  1.223E+00
   1    8    6     5     4    9.7343E+00  1.3577E-01   9.5985E+00  0.000E+00  0.000E+00  0.000E+00  1.04691E+03  6.637E-01  1.482E+01  3.706E-02  1.221E+00
   1    9    6     6     1    1.0238E+02  3.5054E-01   1.0203E+02  0.000E+00  0.000E+00  0.000E+00  1.04557E+03  2.842E+00  1.200E+01  6.000E-02  1.947E+00
   1   10    7     6     2    1.0203E+02  3.5018E-01   1.0168E+02  0.000E+00  0.000E+00  0.000E+00  1.04102E+03  2.836E+00  1.200E+01  6.000E-02  1.945E+00
   1   11    7     6     3    1.0168E+02  3.4983E-01   1.0133E+02  0.000E+00  0.000E+00  0.000E+00  1.03647E+03  2.831E+00  1.200E+01  6.000E-02  1.944E+00
   1   12    7     6     4    1.0133E+02  3.4948E-01   1.0098E+02  0.000E+00  0.000E+00  0.000E+00  1.03192E+03  2.825E+00  1.200E+01  6.000E-02  1.942E+00
   1   13    7     6     5    1.0098E+02  2.9313E-02   1.0095E+02  0.000E+00  0.000E+00  0.000E+00  1.02873E+03  2.822E+00  1.200E+01  2.400E-02  4.071E-01
   1   14    9     7     1    1.5000E+02  1.1717E+00   1.4883E+02  0.000E+00  0.000E+00  0.000E+00  1.03987E+03  2.288E+00  5.530E+01  5.593E-01  6.983E-01
   1   13    8     7     2    1.4883E+02  1.6110E+00   1.4722E+02  0.000E+00  0.000E+00  0.000E+00  1.03478E+03  2.281E+00  5.526E+01  6.149E-01  8.734E-01
   1   13    7     7     3    1.4722E+02  1.2196E+00   1.4600E+02  0.000E+00  0.000E+00  0.000E+00  1.02969E+03  2.273E+00  5.523E+01  5.586E-01  7.278E-01
   1   13    6     8     1    2.4695E+02  1.0000E+00   2.4595E+02  0.000E+00  0.000E+00  0.000E+00  1.02527E+03  3.393E+00  4.920E+01  5.014E-01  6.648E-01
   1   13    5     8     2    2.4595E+02  2.3347E-01   2.4572E+02  0.000E+00  0.000E+00  0.000E+00  1.01902E+03  3.390E+00  4.916E+01  5.009E-01  1.554E-01
   1   13    4     8     3    2.4572E+02 -1.9710E+00   2.4769E+02  0.000E+00  0.000E+00  0.000E+00  1.01277E+03  3.395E+00  4.922E+01  5.016E+00 -1.310E-01
   1   13    3     8     4    2.4769E+02 -3.0746E+00   2.5076E+02  0.000E+00  0.000E+00  0.000E+00  1.00653E+03  3.408E+00  4.941E+01  5.035E+00 -2.035E-01
   1   13    2     8     5    2.5076E+02 -2.1221E+00   2.5289E+02  0.000E+00  0.000E+00  0.000E+00  1.00030E+03  3.421E+00  4.960E+01  5.055E+00 -1.399E-01
   1   13    1     8     6    2.5289E+02 -1.2485E+00   2.5414E+02  0.000E+00  0.000E+00  0.000E+00  9.95304E+02  3.429E+00  4.973E+01  3.040E+00 -1.369E-01
   1    6    8     9     1    1.7735E-06  0.0000E+00   1.7735E-06  0.000E+00  0.000E+00  0.000E+00  1.07850E+03  4.469E-05  4.000E+00  0.000E+00  1.000E+00



 UBDSV3 SAVING "     NETRECHARGE" ON UNIT 100 AT TIME STEP    10, STRESS PERIOD   7
 UBDSV3 SAVING "    NETDISCHARGE" ON UNIT 101 AT TIME STEP    10, STRESS PERIOD   7
 UBDSV3 SAVING "           GW ET" ON UNIT  61 AT TIME STEP    10, STRESS PERIOD   7
 UBDSV3 SAVING "    UZF RECHARGE" ON UNIT  61 AT TIME STEP    10, STRESS PERIOD   7
 UBDSV3 SAVING " SURFACE LEAKAGE" ON UNIT  61 AT TIME STEP    10, STRESS PERIOD   7
 UBDSV3 SAVING "       HORT+DUNN" ON UNIT  61 AT TIME STEP    10, STRESS PERIOD   7
 UBDSV3 SAVING "  STORAGE CHANGE" ON UNIT  61 AT TIME STEP    10, STRESS PERIOD   7


UNSATURATED ZONE PACKAGE VOLUMETRIC BUDGET FOR  TIME STEP    10 STRESS PERIOD    7
  ------------------------------------------------------------------------------



     CUMULATIVE VOLUMES      L**3       RATES FOR THIS TIME STEP      L**3/T
     ------------------                 ------------------------

           IN:                                      IN:
           ---                                      ---
        INFILTRATION =      151809.1725          INFILTRATION =           0.0000

          OUT:                                     OUT:
          ----                                     ----
              UZF ET =   187655578.6566                UZF ET =          83.9998
        UZF RECHARGE =   371118507.5125          UZF RECHARGE =          25.2189

            IN - OUT =  -558622276.9966              IN - OUT =        -109.2188

          STORAGE:                                 STORAGE:
          --------                                 --------
      STORAGE CHANGE =  -558599930.4269        STORAGE CHANGE =        -109.2150

 PERCENT DISCREPANCY IS DIFFERENCE BETWEEN IN-OUT MINUS CHANGE IN STORAGE
 DIVIDED BY THE AVERAGE OF IN AND OUT TIMES 100

 PERCENT DISCREPANCY =          -0.00     PERCENT DISCREPANCY =          -0.00






1
  VOLUMETRIC BUDGET FOR ENTIRE MODEL AT END OF TIME STEP   10, STRESS PERIOD   7
  ------------------------------------------------------------------------------

     CUMULATIVE VOLUMES      L**3       RATES FOR THIS TIME STEP      L**3/T
     ------------------                 ------------------------

           IN:                                      IN:
           ---                                      ---
             STORAGE     =     3969724.7500               STORAGE     =           0.1523
       CONSTANT HEAD     =           0.0000         CONSTANT HEAD     =           0.0000
               WELLS     =           0.0000                 WELLS     =           0.0000
     HEAD DEP BOUNDS     =     3930121.2500       HEAD DEP BOUNDS     =           0.2746
      STREAM LEAKAGE     =   162962336.0000        STREAM LEAKAGE     =          13.2810
        UZF RECHARGE     =   371118496.0000          UZF RECHARGE     =          25.2189
               GW ET     =           0.0000                 GW ET     =           0.0000
     SURFACE LEAKAGE     =           0.0000       SURFACE LEAKAGE     =           0.0000
    SUPPLEMENTARY WELLS  =           0.0000      SUPPLEMENTARY WELLS  =           0.0000

                TOTAL IN =   541980672.0000                  TOTAL IN =          38.9269

          OUT:                                     OUT:
          ----                                     ----
             STORAGE     =   377048096.0000               STORAGE     =          27.2132
       CONSTANT HEAD     =           0.0000         CONSTANT HEAD     =           0.0000
               WELLS     =           0.0000                 WELLS     =           0.0000
     HEAD DEP BOUNDS     =     4120139.5000       HEAD DEP BOUNDS     =           0.2932
      STREAM LEAKAGE     =   155403936.0000        STREAM LEAKAGE     =           8.4163
        UZF RECHARGE     =           0.0000          UZF RECHARGE     =           0.0000
               GW ET     =     5310278.0000                 GW ET     =           3.0002
     SURFACE LEAKAGE     =           0.0000       SURFACE LEAKAGE     =           0.0000
    SUPPLEMENTARY WELLS  =       31277.3203      SUPPLEMENTARY WELLS  =       1.5764E-07

               TOTAL OUT =   541913728.0000                 TOTAL OUT =          38.9228

                IN - OUT =       66944.0000                  IN - OUT =       4.1237E-03

     PERCENT DISCREPANCY =           0.01         PERCENT DISCREPANCY =           0.01






         TIME SUMMARY AT END OF TIME STEP   10 IN STRESS PERIOD    7
                    SECONDS     MINUTES      HOURS       DAYS        YEARS
                    -----------------------------------------------------------
   TIME STEP LENGTH  87600.      1460.0      24.333      1.0139     2.77588E-03
 STRESS PERIOD TIME 8.76000E+05  14600.      243.33      10.139     2.77588E-02
         TOTAL TIME 1.41024E+07 2.35040E+05  3917.3      163.22     0.44688    
1
 
 SOLVING FOR HEAD 
                                                   Max.-Head-Change                         Max.-Flux-Residual
  Residual-Control   Outer-Iter.   Inner-Iter.     Column Row Layer    Maximum-Head-Change  Column Row Layer    Maximum-Flux-Residual          L2-NORM 
          0                 1           2             2    2     1       0.1110185096E-01       2    2    1         0.5785285144E+00      0.1928188946E+01
          0                 2           2             1    2     1       0.2329653008E-02       2    2    1         0.1005637162E+00      0.4831721740E+00
          0                 3           2             1    2     1       0.1046614967E-02       1    2    1         0.2719421578E-01      0.1626663990E+00
          0                 4           2             1    2     1       0.4699823774E-03       1    2    1         0.1221515196E-01      0.6939137895E-01
          0                 5           2             1    2     1       0.2110076906E-03       1    2    1         0.5484854222E-02      0.3084382299E-01
          0                 6           1             1    2     1       0.9472939809E-04       1    2    1         0.2462469068E-02      0.1379449702E-01
          0                 7           1             1    2     1       0.4252649075E-04       1    2    1         0.1105485379E-02      0.6175400430E-02
          0                 8           1             1    2     1       0.1909104747E-04       1    2    1         0.4962792420E-03      0.2765087476E-02
          0                 9           1             1    2     1       0.8570342777E-05       1    2    1         0.2227899903E-03      0.1238186198E-02

    ------------------------------------------------
       NWT REQUIRED            9 OUTER ITERATIONS 
       AND A TOTAL OF         14 INNER ITERATIONS.
    ------------------------------------------------

 NO OUTPUT CONTROL FOR STRESS PERIOD    7   TIME STEP   11
 
 SOLVING FOR HEAD 
                                                   Max.-Head-Change                         Max.-Flux-Residual
  Residual-Control   Outer-Iter.   Inner-Iter.     Column Row Layer    Maximum-Head-Change  Column Row Layer    Maximum-Flux-Residual          L2-NORM 
          0                 1           2             2    2     1       0.1105570791E-01       2    2    1         0.5761009148E+00      0.1912117088E+01
          0                 2           2             1    2     1       0.2332013289E-02       2    2    1         0.1001480461E+00      0.4836054288E+00
          0                 3           2             1    2     1       0.1047672101E-02       1    2    1         0.2722173954E-01      0.1626101943E+00
          0                 4           2             1    2     1       0.4704563549E-03       1    2    1         0.1222748425E-01      0.6935660669E-01
          0                 5           2             1    2     1       0.2112202900E-03       1    2    1         0.5490384361E-02      0.3082800832E-01
          0                 6           1             1    2     1       0.9482477243E-04       1    2    1         0.2464949708E-02      0.1378726027E-01
          0                 7           1             1    2     1       0.4256927924E-04       1    2    1         0.1106598249E-02      0.6172086378E-02
          0                 8           1             1    2     1       0.1911024449E-04       1    2    1         0.4967785243E-03      0.2763571226E-02
          0                 9           1             1    2     1       0.8578955601E-05       1    2    1         0.2230139962E-03      0.1237494277E-02

    ------------------------------------------------
       NWT REQUIRED            9 OUTER ITERATIONS 
       AND A TOTAL OF         14 INNER ITERATIONS.
    ------------------------------------------------

 NO OUTPUT CONTROL FOR STRESS PERIOD    7   TIME STEP   12
 
 SOLVING FOR HEAD 
                                                   Max.-Head-Change                         Max.-Flux-Residual
  Residual-Control   Outer-Iter.   Inner-Iter.     Column Row Layer    Maximum-Head-Change  Column Row Layer    Maximum-Flux-Residual          L2-NORM 
          0                 1           2             2    2     1       0.1101025264E-01       2    2    1         0.5737096226E+00      0.1898899434E+01
          0                 2           2             1    2     1       0.2334339617E-02       4   13    1         0.1010750178E+00      0.4840421686E+00
          0                 3           2             1    2     1       0.1048714015E-02       1    2    1         0.2724886730E-01      0.1625522331E+00
          0                 4           2             1    2     1       0.4709235015E-03       1    2    1         0.1223963895E-01      0.6932034529E-01
          0                 5           2             1    2     1       0.2114298230E-03       1    2    1         0.5495834804E-02      0.3081151369E-01
          0                 6           1             1    2     1       0.9491877042E-04       1    2    1         0.2467394577E-02      0.1377972881E-01
          0                 7           1             1    2     1       0.4261144997E-04       1    2    1         0.1107695061E-02      0.6168643833E-02
          0                 8           1             1    2     1       0.1912916414E-04       1    2    1         0.4972705948E-03      0.2761999581E-02
          0                 9           1             1    2     1       0.8587443870E-05       1    2    1         0.2232347598E-03      0.1236780367E-02

    ------------------------------------------------
       NWT REQUIRED            9 OUTER ITERATIONS 
       AND A TOTAL OF         14 INNER ITERATIONS.
    ------------------------------------------------

 NO OUTPUT CONTROL FOR STRESS PERIOD    7   TIME STEP   13
 
 SOLVING FOR HEAD 
                                                   Max.-Head-Change                         Max.-Flux-Residual
  Residual-Control   Outer-Iter.   Inner-Iter.     Column Row Layer    Maximum-Head-Change  Column Row Layer    Maximum-Flux-Residual          L2-NORM 
          0                 1           2             2    2     1       0.1096573258E-01       2    2    1         0.5713676194E+00      0.1887944631E+01
          0                 2           2             1    2     1       0.2336632583E-02       4   13    1         0.1029890734E+00      0.4844515894E+00
          0                 3           2             1    2     1       0.1049740983E-02       1    2    1         0.2727560605E-01      0.1624905346E+00
          0                 4           2             1    2     1       0.4713839437E-03       1    2    1         0.1225161931E-01      0.6928253562E-01
          0                 5           2             1    2     1       0.2116363465E-03       1    2    1         0.5501207011E-02      0.3079434529E-01
          0                 6           1             1    2     1       0.9501141755E-04       1    2    1         0.2469804326E-02      0.1377189855E-01
          0                 7           1             1    2     1       0.4265301392E-04       1    2    1         0.1108776100E-02      0.6165070035E-02
          0                 8           1             1    2     1       0.1914781142E-04       1    2    1         0.4977555841E-03      0.2760369655E-02
          0                 9           1             1    2     1       0.8595809834E-05       1    2    1         0.2234523456E-03      0.1236034104E-02

    ------------------------------------------------
       NWT REQUIRED            9 OUTER ITERATIONS 
       AND A TOTAL OF         14 INNER ITERATIONS.
    ------------------------------------------------

 NO OUTPUT CONTROL FOR STRESS PERIOD    7   TIME STEP   14
 
 SOLVING FOR HEAD 
                                                   Max.-Head-Change                         Max.-Flux-Residual
  Residual-Control   Outer-Iter.   Inner-Iter.     Column Row Layer    Maximum-Head-Change  Column Row Layer    Maximum-Flux-Residual          L2-NORM 
          0                 1           2             2    2     1       0.1092186307E-01       2    2    1         0.5690599970E+00      0.1878872463E+01
          0                 2           2             1    2     1       0.2338912932E-02       4   13    1         0.1046907797E+00      0.4848496555E+00
          0                 3           2             1    2     1       0.1050762308E-02       1    2    1         0.2730219778E-01      0.1624267103E+00
          0                 4           2             1    2     1       0.4718418560E-03       1    2    1         0.1226353384E-01      0.6924294320E-01
          0                 5           2             1    2     1       0.2118417342E-03       1    2    1         0.5506549687E-02      0.3077634782E-01
          0                 6           1             1    2     1       0.9510355396E-04       1    2    1         0.2472200813E-02      0.1376370323E-01
          0                 7           1             1    2     1       0.4269434902E-04       1    2    1         0.1109851188E-02      0.6161336762E-02
          0                 8           1             1    2     1       0.1916635565E-04       1    2    1         0.4982378968E-03      0.2758670119E-02
          0                 9           1             1    2     1       0.8604129528E-05       1    2    1         0.2236687266E-03      0.1235261700E-02

    ------------------------------------------------
       NWT REQUIRED            9 OUTER ITERATIONS 
       AND A TOTAL OF         14 INNER ITERATIONS.
    ------------------------------------------------

 OUTPUT CONTROL FOR STRESS PERIOD    7   TIME STEP   15
    PRINT BUDGET
    PRINT HEAD FOR ALL LAYERS
    SAVE HEAD FOR ALL LAYERS
    SAVE BUDGET
 UBUDSV SAVING "         STORAGE" ON UNIT102 AT TIME STEP    15, STRESS PERIOD    7
 UBUDSV SAVING "   CONSTANT HEAD" ON UNIT102 AT TIME STEP    15, STRESS PERIOD    7
 UBUDSV SAVING "FLOW RIGHT FACE " ON UNIT102 AT TIME STEP    15, STRESS PERIOD    7
 UBUDSV SAVING "FLOW FRONT FACE " ON UNIT102 AT TIME STEP    15, STRESS PERIOD    7

  HEAD DEP BOUNDS   PERIOD    7   STEP    15
 BOUNDARY      1   LAYER   1   ROW    13   COL     1   RATE   -0.293546    
 BOUNDARY      2   LAYER   1   ROW    14   COL     9   RATE    0.274530    



 STREAM LISTING     PERIOD      7   STEP       15

 LAYER ROW COL. STREAM  RCH.  FLOW INTO     FLOW TO   FLOW OUT OF   OVRLND.     DIRECT     STREAM       STREAM     STREAM     STREAM   STREAMBED  STREAMBED
                SEG.NO.  NO.  STRM. RCH.    AQUIFER    STRM. RCH.    RUNOFF     PRECIP       ET          HEAD       DEPTH      WIDTH   CONDCTNC.   GRADIENT

   1    1    1     1     1    9.9000E+01  4.7281E-01   9.8527E+01  0.000E+00  0.000E+00  0.000E+00  1.09484E+03  1.796E+00  2.191E+01  9.859E-02  1.599E+00
   1    2    2     1     2    9.8527E+01  7.3365E-01   9.7794E+01  0.000E+00  0.000E+00  0.000E+00  1.08985E+03  1.793E+00  2.187E+01  1.531E-01  1.598E+00
   1    3    3     1     3    9.7794E+01  6.2707E-01   9.7166E+01  0.000E+00  0.000E+00  0.000E+00  1.08421E+03  1.791E+00  2.181E+01  1.309E-01  1.597E+00
   1    3    4     1     4    9.7166E+01  5.7859E-01   9.6588E+01  0.000E+00  0.000E+00  0.000E+00  1.07920E+03  1.789E+00  2.177E+01  1.208E-01  1.596E+00
   1    4    5     2     1    9.4588E+01  4.4299E-01   9.4145E+01  0.000E+00  0.000E+00  0.000E+00  1.07461E+03  2.679E+00  1.200E+01  7.800E-02  1.893E+00
   1    5    6     2     2    9.4145E+01  3.4036E-01   9.3805E+01  0.000E+00  0.000E+00  0.000E+00  1.06918E+03  2.673E+00  1.200E+01  6.000E-02  1.891E+00
   1    6    6     2     3    9.3805E+01  3.4001E-01   9.3465E+01  0.000E+00  0.000E+00  0.000E+00  1.06446E+03  2.667E+00  1.200E+01  6.000E-02  1.889E+00
   1    7    6     2     4    9.3465E+01  3.3967E-01   9.3125E+01  0.000E+00  0.000E+00  0.000E+00  1.05974E+03  2.661E+00  1.200E+01  6.000E-02  1.887E+00
   1    8    6     2     5    9.3125E+01  3.3932E-01   9.2786E+01  0.000E+00  0.000E+00  0.000E+00  1.05501E+03  2.655E+00  1.200E+01  6.000E-02  1.885E+00
   1    3    5     3     1    2.0000E+00  2.8252E-01   1.7175E+00  0.000E+00  0.000E+00  0.000E+00  1.07555E+03  1.909E+00  9.636E+00  7.227E-02  1.955E+00
   1    3    6     3     2    1.7175E+00  2.4905E-01   1.4684E+00  0.000E+00  0.000E+00  0.000E+00  1.07264E+03  1.727E+00  8.909E+00  6.682E-02  1.864E+00
   1    3    7     3     3    1.4684E+00  1.9718E-01   1.2712E+00  0.000E+00  0.000E+00  0.000E+00  1.06987E+03  1.555E+00  8.218E+00  5.547E-02  1.777E+00
   1    4    8     3     4    1.2712E+00  2.2567E-01   1.0456E+00  0.000E+00  0.000E+00  0.000E+00  1.06682E+03  1.364E+00  7.455E+00  6.709E-02  1.682E+00
   1    5    8     3     5    1.0456E+00  1.5790E-01   8.8768E-01  0.000E+00  0.000E+00  0.000E+00  1.06362E+03  1.164E+00  6.655E+00  4.991E-02  1.582E+00
   1    6    8     3     6    8.8768E-01  5.5980E-02   8.3170E-01  0.000E+00  0.000E+00  0.000E+00  1.06158E+03  1.036E+00  6.145E+00  1.844E-02  1.518E+00
   1    5   10     4     1    1.0000E+01  9.0919E-02   9.9091E+00  0.000E+00  0.000E+00  0.000E+00  1.07836E+03  6.368E-01  1.000E+01  2.500E-02  1.212E+00
   1    5    9     4     2    9.9091E+00  1.8158E-01   9.7275E+00  0.000E+00  0.000E+00  0.000E+00  1.07154E+03  6.315E-01  1.000E+01  5.000E-02  1.211E+00
   1    6    8     4     3    9.7275E+00  1.2689E-01   9.6006E+00  0.000E+00  0.000E+00  0.000E+00  1.06381E+03  6.256E-01  1.000E+01  3.500E-02  1.209E+00
   1    6    8     5     1    1.0432E+01  2.2686E-01   1.0205E+01  0.000E+00  0.000E+00  0.000E+00  1.05868E+03  6.790E-01  1.542E+01  6.166E-02  1.226E+00
   1    7    7     5     2    1.0205E+01  2.7894E-01   9.9265E+00  0.000E+00  0.000E+00  0.000E+00  1.05417E+03  6.732E-01  1.519E+01  7.594E-02  1.224E+00
   1    8    7     5     3    9.9265E+00  1.9221E-01   9.7343E+00  0.000E+00  0.000E+00  0.000E+00  1.04992E+03  6.676E-01  1.497E+01  5.241E-02  1.223E+00
   1    8    6     5     4    9.7343E+00  1.3577E-01   9.5985E+00  0.000E+00  0.000E+00  0.000E+00  1.04691E+03  6.637E-01  1.482E+01  3.706E-02  1.221E+00
   1    9    6     6     1    1.0238E+02  3.5054E-01   1.0203E+02  0.000E+00  0.000E+00  0.000E+00  1.04557E+03  2.842E+00  1.200E+01  6.000E-02  1.947E+00
   1   10    7     6     2    1.0203E+02  3.5018E-01   1.0168E+02  0.000E+00  0.000E+00  0.000E+00  1.04102E+03  2.836E+00  1.200E+01  6.000E-02  1.945E+00
   1   11    7     6     3    1.0168E+02  3.4983E-01   1.0133E+02  0.000E+00  0.000E+00  0.000E+00  1.03647E+03  2.831E+00  1.200E+01  6.000E-02  1.944E+00
   1   12    7     6     4    1.0133E+02  3.4948E-01   1.0098E+02  0.000E+00  0.000E+00  0.000E+00  1.03192E+03  2.825E+00  1.200E+01  6.000E-02  1.942E+00
   1   13    7     6     5    1.0098E+02  2.9076E-02   1.0095E+02  0.000E+00  0.000E+00  0.000E+00  1.02873E+03  2.822E+00  1.200E+01  2.400E-02  4.038E-01
   1   14    9     7     1    1.5000E+02  1.1708E+00   1.4883E+02  0.000E+00  0.000E+00  0.000E+00  1.03987E+03  2.288E+00  5.530E+01  5.593E-01  6.978E-01
   1   13    8     7     2    1.4883E+02  1.6085E+00   1.4722E+02  0.000E+00  0.000E+00  0.000E+00  1.03478E+03  2.281E+00  5.526E+01  6.149E-01  8.720E-01
   1   13    7     7     3    1.4722E+02  1.2141E+00   1.4601E+02  0.000E+00  0.000E+00  0.000E+00  1.02969E+03  2.273E+00  5.523E+01  5.586E-01  7.245E-01
   1   13    6     8     1    2.4696E+02  9.9214E-01   2.4597E+02  0.000E+00  0.000E+00  0.000E+00  1.02527E+03  3.393E+00  4.920E+01  5.014E-01  6.596E-01
   1   13    5     8     2    2.4597E+02  2.3850E-01   2.4573E+02  0.000E+00  0.000E+00  0.000E+00  1.01902E+03  3.390E+00  4.916E+01  5.009E-01  1.587E-01
   1   13    4     8     3    2.4573E+02 -2.0558E+00   2.4779E+02  0.000E+00  0.000E+00  0.000E+00  1.01277E+03  3.395E+00  4.923E+01  5.016E+00 -1.366E-01
   1   13    3     8     4    2.4779E+02 -3.1737E+00   2.5096E+02  0.000E+00  0.000E+00  0.000E+00  1.00653E+03  3.408E+00  4.942E+01  5.036E+00 -2.101E-01
   1   13    2     8     5    2.5096E+02 -2.2885E+00   2.5325E+02  0.000E+00  0.000E+00  0.000E+00  1.00030E+03  3.422E+00  4.962E+01  5.057E+00 -1.509E-01
   1   13    1     8     6    2.5325E+02 -1.2732E+00   2.5452E+02  0.000E+00  0.000E+00  0.000E+00  9.95306E+02  3.431E+00  4.975E+01  3.042E+00 -1.395E-01
   1    6    8     9     1    1.7735E-06  0.0000E+00   1.7735E-06  0.000E+00  0.000E+00  0.000E+00  1.07850E+03  4.469E-05  4.000E+00  0.000E+00  1.000E+00



 UBDSV3 SAVING "     NETRECHARGE" ON UNIT 100 AT TIME STEP    15, STRESS PERIOD   7
 UBDSV3 SAVING "    NETDISCHARGE" ON UNIT 101 AT TIME STEP    15, STRESS PERIOD   7
 UBDSV3 SAVING "           GW ET" ON UNIT  61 AT TIME STEP    15, STRESS PERIOD   7
 UBDSV3 SAVING "    UZF RECHARGE" ON UNIT  61 AT TIME STEP    15, STRESS PERIOD   7
 UBDSV3 SAVING " SURFACE LEAKAGE" ON UNIT  61 AT TIME STEP    15, STRESS PERIOD   7
 UBDSV3 SAVING "       HORT+DUNN" ON UNIT  61 AT TIME STEP    15, STRESS PERIOD   7
 UBDSV3 SAVING "  STORAGE CHANGE" ON UNIT  61 AT TIME STEP    15, STRESS PERIOD   7


UNSATURATED ZONE PACKAGE VOLUMETRIC BUDGET FOR  TIME STEP    15 STRESS PERIOD    7
  ------------------------------------------------------------------------------



     CUMULATIVE VOLUMES      L**3       RATES FOR THIS TIME STEP      L**3/T
     ------------------                 ------------------------

           IN:                                      IN:
           ---                                      ---
        INFILTRATION =      151809.9320          INFILTRATION =           0.0000

          OUT:                                     OUT:
          ----                                     ----
              UZF ET =   224447552.2191                UZF ET =          84.0000
        UZF RECHARGE =   382147108.7764          UZF RECHARGE =          25.1539

            IN - OUT =  -606442851.0635              IN - OUT =        -109.1539

          STORAGE:                                 STORAGE:
          --------                                 --------
      STORAGE CHANGE =  -606419182.3712        STORAGE CHANGE =        -109.1513

 PERCENT DISCREPANCY IS DIFFERENCE BETWEEN IN-OUT MINUS CHANGE IN STORAGE
 DIVIDED BY THE AVERAGE OF IN AND OUT TIMES 100

 PERCENT DISCREPANCY =          -0.00     PERCENT DISCREPANCY =          -0.00






1
              HEAD IN LAYER   1 AT END OF TIME STEP    15 IN STRESS PERIOD    7
  -----------------------------------------------------------------------------

           1       2       3       4       5       6       7       8       9      10
 ...................................................................................
   1  1034.51 1032.90 6999.00 6999.00 6999.00 6999.00 6999.00 6999.00 6999.00 6999.00
   2  1033.83 1032.51 1031.43 6999.00 6999.00 1032.92 1033.10 1033.13 6999.00 6999.00
   3  6999.00 1031.55 1031.13 1030.80 1031.21 1031.87 1032.53 1032.62 6999.00 6999.00
   4  1030.88 1030.81 1030.39 1029.91 1029.92 1029.91 1030.61 1031.83 1031.69 6999.00
   5  1030.43 1030.00 1029.52 1029.10 1029.14 1029.35 1029.46 1029.94 1030.57 1031.02
   6  1029.85 1029.22 1028.68 1028.30 1028.37 1028.73 1028.96 1029.50 1030.34 1031.52
   7  1029.33 1028.23 1027.69 1027.36 1027.50 1027.95 1028.34 1028.86 1029.99 6999.00
   8  6999.00 1026.77 1026.44 1026.22 1026.42 1026.96 1027.37 1028.43 1029.43 6999.00
   9  6999.00 1024.57 1024.59 1024.67 1025.03 1025.72 1026.24 1027.47 1028.86 6999.00
  10  6999.00 1021.57 1022.03 1022.73 1023.48 1024.52 1025.51 1027.00 1028.88 1029.52
  11  6999.00 1016.83 1017.90 1020.19 1021.82 1023.58 1025.21 1027.38 1029.84 6999.00
  12  1003.08 1008.90 1012.70 1016.67 1019.97 1023.03 1025.57 1029.21 1032.47 6999.00
  13   995.72 1000.75 1007.16 1013.18 1018.54 1023.29 1027.52 1032.16 1035.15 6999.00
  14  6999.00 1007.09 1009.96 1014.58 1019.36 1023.79 1028.63 1033.90 1037.78 6999.00
  15  6999.00 6999.00 1013.90 1016.60 1020.05 1023.04 6999.00 6999.00 6999.00 6999.00

 HEAD WILL BE SAVED ON UNIT   62 AT END OF TIME STEP   15, STRESS PERIOD    7
1
  VOLUMETRIC BUDGET FOR ENTIRE MODEL AT END OF TIME STEP   15, STRESS PERIOD   7
  ------------------------------------------------------------------------------

     CUMULATIVE VOLUMES      L**3       RATES FOR THIS TIME STEP      L**3/T
     ------------------                 ------------------------

           IN:                                      IN:
           ---                                      ---
             STORAGE     =     4019641.7500               STORAGE     =       9.1384E-02
       CONSTANT HEAD     =           0.0000         CONSTANT HEAD     =           0.0000
               WELLS     =           0.0000                 WELLS     =           0.0000
     HEAD DEP BOUNDS     =     4050375.5000       HEAD DEP BOUNDS     =           0.2745
      STREAM LEAKAGE     =   168776320.0000        STREAM LEAKAGE     =          13.2691
        UZF RECHARGE     =   382147104.0000          UZF RECHARGE     =          25.1539
               GW ET     =           0.0000                 GW ET     =           0.0000
     SURFACE LEAKAGE     =           0.0000       SURFACE LEAKAGE     =           0.0000
    SUPPLEMENTARY WELLS  =           0.0000      SUPPLEMENTARY WELLS  =           0.0000

                TOTAL IN =   558993408.0000                  TOTAL IN =          38.7889

          OUT:                                     OUT:
          ----                                     ----
             STORAGE     =   388825856.0000               STORAGE     =          26.7001
       CONSTANT HEAD     =           0.0000         CONSTANT HEAD     =           0.0000
               WELLS     =           0.0000                 WELLS     =           0.0000
     HEAD DEP BOUNDS     =     4248649.0000       HEAD DEP BOUNDS     =           0.2935
      STREAM LEAKAGE     =   159194608.0000        STREAM LEAKAGE     =           8.7912
        UZF RECHARGE     =           0.0000          UZF RECHARGE     =           0.0000
               GW ET     =     6624300.5000                 GW ET     =           3.0000
     SURFACE LEAKAGE     =           0.0000       SURFACE LEAKAGE     =           0.0000
    SUPPLEMENTARY WELLS  =       31277.3887      SUPPLEMENTARY WELLS  =       1.5764E-07

               TOTAL OUT =   558924736.0000                 TOTAL OUT =          38.7848

                IN - OUT =       68672.0000                  IN - OUT =       4.1084E-03

     PERCENT DISCREPANCY =           0.01         PERCENT DISCREPANCY =           0.01






         TIME SUMMARY AT END OF TIME STEP   15 IN STRESS PERIOD    7
                    SECONDS     MINUTES      HOURS       DAYS        YEARS
                    -----------------------------------------------------------
   TIME STEP LENGTH  87600.      1460.0      24.333      1.0139     2.77588E-03
 STRESS PERIOD TIME 1.31400E+06  21900.      365.00      15.208     4.16381E-02
         TOTAL TIME 1.45404E+07 2.42340E+05  4039.0      168.29     0.46076    
1
 
 SOLVING FOR HEAD 
                                                   Max.-Head-Change                         Max.-Flux-Residual
  Residual-Control   Outer-Iter.   Inner-Iter.     Column Row Layer    Maximum-Head-Change  Column Row Layer    Maximum-Flux-Residual          L2-NORM 
          0                 1           2             2    2     1       0.1087889280E-01       2    2    1         0.5667997233E+00      0.1871327237E+01
          0                 2           2             1    2     1       0.2341140468E-02       4   13    1         0.1062050634E+00      0.4852140139E+00
          0                 3           2             1    2     1       0.1051759954E-02       1    2    1         0.2732817349E-01      0.1623595458E+00
          0                 4           2             1    2     1       0.4722891416E-03       1    2    1         0.1227517208E-01      0.6920195128E-01
          0                 5           2             1    2     1       0.2120423512E-03       1    2    1         0.5511768365E-02      0.3075772819E-01
          0                 6           1             1    2     1       0.9519354916E-04       1    2    1         0.2474541641E-02      0.1375523688E-01
          0                 7           1             1    2     1       0.4273472245E-04       1    2    1         0.1110901286E-02      0.6157484638E-02
          0                 8           1             1    2     1       0.1918446820E-04       1    2    1         0.4987089933E-03      0.2756918704E-02
          0                 9           1             1    2     1       0.8612255636E-05       1    2    1         0.2238800782E-03      0.1234466378E-02

    ------------------------------------------------
       NWT REQUIRED            9 OUTER ITERATIONS 
       AND A TOTAL OF         14 INNER ITERATIONS.
    ------------------------------------------------

 NO OUTPUT CONTROL FOR STRESS PERIOD    7   TIME STEP   16
 
 SOLVING FOR HEAD 
                                                   Max.-Head-Change                         Max.-Flux-Residual
  Residual-Control   Outer-Iter.   Inner-Iter.     Column Row Layer    Maximum-Head-Change  Column Row Layer    Maximum-Flux-Residual          L2-NORM 
          0                 1           2             2    2     1       0.1083662624E-01       2    2    1         0.5645766175E+00      0.1864996698E+01
          0                 2           2             1    2     1       0.2343336051E-02       4   13    1         0.1075517102E+00      0.4855653870E+00
          0                 3           2             1    2     1       0.1052743279E-02       1    2    1         0.2735377656E-01      0.1622920392E+00
          0                 4           2             1    2     1       0.4727300011E-03       1    2    1         0.1228664322E-01      0.6915990425E-01
          0                 5           2             1    2     1       0.2122400835E-03       1    2    1         0.5516912045E-02      0.3073858123E-01
          0                 6           1             1    2     1       0.9528224904E-04       1    2    1         0.2476848792E-02      0.1374653859E-01
          0                 7           1             1    2     1       0.4277451361E-04       1    2    1         0.1111936258E-02      0.6153531226E-02
          0                 8           1             1    2     1       0.1920231987E-04       1    2    1         0.4991733031E-03      0.2755122369E-02
          0                 9           1             1    2     1       0.8620263941E-05       1    2    1         0.2240883739E-03      0.1233650180E-02

    ------------------------------------------------
       NWT REQUIRED            9 OUTER ITERATIONS 
       AND A TOTAL OF         14 INNER ITERATIONS.
    ------------------------------------------------

 NO OUTPUT CONTROL FOR STRESS PERIOD    7   TIME STEP   17
 
 SOLVING FOR HEAD 
                                                   Max.-Head-Change                         Max.-Flux-Residual
  Residual-Control   Outer-Iter.   Inner-Iter.     Column Row Layer    Maximum-Head-Change  Column Row Layer    Maximum-Flux-Residual          L2-NORM 
          0                 1           2             2    2     1       0.1079504700E-01       2    2    1         0.5623897526E+00      0.1859738584E+01
          0                 2           2             1    2     1       0.2345520485E-02       4   13    1         0.1087492438E+00      0.4858799156E+00
          0                 3           2             1    2     1       0.1053721621E-02       1    2    1         0.2737924972E-01      0.1622214635E+00
          0                 4           2             1    2     1       0.4731686271E-03       1    2    1         0.1229805627E-01      0.6911631605E-01
          0                 5           2             1    2     1       0.2124368139E-03       1    2    1         0.5522029679E-02      0.3071875672E-01
          0                 6           1             1    2     1       0.9537049897E-04       1    2    1         0.2479144258E-02      0.1373754191E-01
          0                 7           1             1    2     1       0.4281410369E-04       1    2    1         0.1112965989E-02      0.6149446727E-02
          0                 8           1             1    2     1       0.1922008051E-04       1    2    1         0.4996352504E-03      0.2753269223E-02
          0                 9           1             1    2     1       0.8628231729E-05       1    2    1         0.2242956131E-03      0.1232809475E-02

    ------------------------------------------------
       NWT REQUIRED            9 OUTER ITERATIONS 
       AND A TOTAL OF         14 INNER ITERATIONS.
    ------------------------------------------------

 NO OUTPUT CONTROL FOR STRESS PERIOD    7   TIME STEP   18
 
 SOLVING FOR HEAD 
                                                   Max.-Head-Change                         Max.-Flux-Residual
  Residual-Control   Outer-Iter.   Inner-Iter.     Column Row Layer    Maximum-Head-Change  Column Row Layer    Maximum-Flux-Residual          L2-NORM 
          0                 1           2             2    2     1       0.1075422765E-01       2    2    1         0.5602429604E+00      0.1855223506E+01
          0                 2           2             1    2     1       0.2347653435E-02       4   13    1         0.1098158543E+00      0.4861793858E+00
          0                 3           2             1    2     1       0.1054676875E-02       1    2    1         0.2740412235E-01      0.1621513919E+00
          0                 4           2             1    2     1       0.4735968912E-03       1    2    1         0.1230919991E-01      0.6907200707E-01
          0                 5           2             1    2     1       0.2126288921E-03       1    2    1         0.5527026386E-02      0.3069852585E-01
          0                 6           1             1    2     1       0.9545666023E-04       1    2    1         0.2481385432E-02      0.1372836688E-01
          0                 7           1             1    2     1       0.4285275535E-04       1    2    1         0.1113971342E-02      0.6145285085E-02
          0                 8           1             1    2     1       0.1923742020E-04       1    2    1         0.5000862573E-03      0.2751382258E-02
          0                 9           1             1    2     1       0.8636010682E-05       1    2    1         0.2244979391E-03      0.1231954260E-02

    ------------------------------------------------
       NWT REQUIRED            9 OUTER ITERATIONS 
       AND A TOTAL OF         14 INNER ITERATIONS.
    ------------------------------------------------

 NO OUTPUT CONTROL FOR STRESS PERIOD    7   TIME STEP   19
 
 SOLVING FOR HEAD 
                                                   Max.-Head-Change                         Max.-Flux-Residual
  Residual-Control   Outer-Iter.   Inner-Iter.     Column Row Layer    Maximum-Head-Change  Column Row Layer    Maximum-Flux-Residual          L2-NORM 
          0                 1           2             2    2     1       0.1071415179E-01       2    2    1         0.5581353313E+00      0.1851464448E+01
          0                 2           2             1    2     1       0.2349776214E-02       4   13    1         0.1107632028E+00      0.4864456221E+00
          0                 3           2             1    2     1       0.1055627590E-02       1    2    1         0.2742887655E-01      0.1620795290E+00
          0                 4           2             1    2     1       0.4740231217E-03       1    2    1         0.1232029063E-01      0.6902662702E-01
          0                 5           2             1    2     1       0.2128200583E-03       1    2    1         0.5531999377E-02      0.3067782715E-01
          0                 6           1             1    2     1       0.9554241180E-04       1    2    1         0.2483615961E-02      0.1371898953E-01
          0                 7           1             1    2     1       0.4289122343E-04       1    2    1         0.1114971915E-02      0.6141035530E-02
          0                 8           1             1    2     1       0.1925467712E-04       1    2    1         0.5005351129E-03      0.2749457247E-02
          0                 9           1             1    2     1       0.8643752369E-05       1    2    1         0.2246992983E-03      0.1231082793E-02

    ------------------------------------------------
       NWT REQUIRED            9 OUTER ITERATIONS 
       AND A TOTAL OF         14 INNER ITERATIONS.
    ------------------------------------------------

 NO OUTPUT CONTROL FOR STRESS PERIOD    7   TIME STEP   20
 
 SOLVING FOR HEAD 
                                                   Max.-Head-Change                         Max.-Flux-Residual
  Residual-Control   Outer-Iter.   Inner-Iter.     Column Row Layer    Maximum-Head-Change  Column Row Layer    Maximum-Flux-Residual          L2-NORM 
          0                 1           2             2    2     1       0.1067471469E-01       2    2    1         0.5560614424E+00      0.1846803772E+01
          0                 2           2             1    2     1       0.2351868760E-02       4   13    1         0.1116007669E+00      0.4872593969E+00
          0                 3           2             1    2     1       0.1056564753E-02       1    2    1         0.2745327814E-01      0.1619472993E+00
          0                 4           2             1    2     1       0.4744432712E-03       1    2    1         0.1233122322E-01      0.6897740656E-01
          0                 5           2             1    2     1       0.2130084942E-03       1    2    1         0.5536901389E-02      0.3065629677E-01
          0                 6           1             1    2     1       0.9562693758E-04       1    2    1         0.2485814622E-02      0.1370926652E-01
          0                 7           1             1    2     1       0.4292914076E-04       1    2    1         0.1115958179E-02      0.6136634600E-02
          0                 8           1             1    2     1       0.1927168692E-04       1    2    1         0.5009775478E-03      0.2747465930E-02
          0                 9           1             1    2     1       0.8651383257E-05       1    2    1         0.2248977798E-03      0.1230182410E-02

    ------------------------------------------------
       NWT REQUIRED            9 OUTER ITERATIONS 
       AND A TOTAL OF         14 INNER ITERATIONS.
    ------------------------------------------------

 NO OUTPUT CONTROL FOR STRESS PERIOD    7   TIME STEP   21
 
 SOLVING FOR HEAD 
                                                   Max.-Head-Change                         Max.-Flux-Residual
  Residual-Control   Outer-Iter.   Inner-Iter.     Column Row Layer    Maximum-Head-Change  Column Row Layer    Maximum-Flux-Residual          L2-NORM 
          0                 1           2             2   13     1      -0.1165756642E-01       2   13    1        -0.6706341616E+00      0.1961762168E+01
          0                 2           2             2   13     1       0.2959695239E-02       2   13    1         0.1703873514E+00      0.5066833706E+00
          0                 3           2             1    2     1       0.1057479416E-02       1    2    1         0.2747709451E-01      0.1622400820E+00
          0                 4           2             1    2     1       0.4748533223E-03       1    2    1         0.1234189329E-01      0.6892096885E-01
          0                 5           2             1    2     1       0.2131923971E-03       1    2    1         0.5541685581E-02      0.3062858944E-01
          0                 6           1             1    2     1       0.9570942870E-04       1    2    1         0.2487960395E-02      0.1369676696E-01
          0                 7           1             1    2     1       0.4296614469E-04       1    2    1         0.1116920693E-02      0.6131002542E-02
          0                 8           1             1    2     1       0.1928828629E-04       1    2    1         0.5014093138E-03      0.2744928397E-02
          0                 9           1             1    2     1       0.8658829563E-05       1    2    1         0.2250914666E-03      0.1229039528E-02

    ------------------------------------------------
       NWT REQUIRED            9 OUTER ITERATIONS 
       AND A TOTAL OF         14 INNER ITERATIONS.
    ------------------------------------------------

 NO OUTPUT CONTROL FOR STRESS PERIOD    7   TIME STEP   22
 
 SOLVING FOR HEAD 
                                                   Max.-Head-Change                         Max.-Flux-Residual
  Residual-Control   Outer-Iter.   Inner-Iter.     Column Row Layer    Maximum-Head-Change  Column Row Layer    Maximum-Flux-Residual          L2-NORM 
          0                 1           2             2   13     1      -0.1067668133E-01       2   13    1        -0.6140900719E+00      0.1941122415E+01
          0                 2           2             2   13     1       0.2867547853E-02       2   13    1         0.1650271780E+00      0.5050282816E+00
          0                 3           2             1    2     1       0.1058390126E-02       1    2    1         0.2750080769E-01      0.1620713431E+00
          0                 4           2             1    2     1       0.4752616025E-03       1    2    1         0.1235251725E-01      0.6885983460E-01
          0                 5           2             1    2     1       0.2133755049E-03       1    2    1         0.5546449095E-02      0.3060133006E-01
          0                 6           1             1    2     1       0.9579156191E-04       1    2    1         0.2490096883E-02      0.1368448582E-01
          0                 7           1             1    2     1       0.4300298830E-04       1    2    1         0.1117879049E-02      0.6125467987E-02
          0                 8           1             1    2     1       0.1930481388E-04       1    2    1         0.5018392162E-03      0.2742434771E-02
          0                 9           1             1    2     1       0.8666243855E-05       1    2    1         0.2252843184E-03      0.1227916177E-02

    ------------------------------------------------
       NWT REQUIRED            9 OUTER ITERATIONS 
       AND A TOTAL OF         14 INNER ITERATIONS.
    ------------------------------------------------

 NO OUTPUT CONTROL FOR STRESS PERIOD    7   TIME STEP   23
 
 SOLVING FOR HEAD 
                                                   Max.-Head-Change                         Max.-Flux-Residual
  Residual-Control   Outer-Iter.   Inner-Iter.     Column Row Layer    Maximum-Head-Change  Column Row Layer    Maximum-Flux-Residual          L2-NORM 
          0                 1           2             2    2     1       0.1056052700E-01       2   13    1        -0.5631671785E+00      0.1923913023E+01
          0                 2           2             2   13     1       0.2784584231E-02       2   13    1         0.1602016055E+00      0.5035618188E+00
          0                 3           2             1    2     1       0.1059287859E-02       1    2    1         0.2752418324E-01      0.1618513739E+00
          0                 4           2             1    2     1       0.4756640597E-03       1    2    1         0.1236298981E-01      0.6879746806E-01
          0                 5           2             1    2     1       0.2135559993E-03       1    2    1         0.5551144665E-02      0.3057428882E-01
          0                 6           1             1    2     1       0.9587252211E-04       1    2    1         0.2492202868E-02      0.1367232464E-01
          0                 7           1             1    2     1       0.4303930517E-04       1    2    1         0.1118823704E-02      0.6119987791E-02
          0                 8           1             1    2     1       0.1932110486E-04       1    2    1         0.5022629628E-03      0.2739965768E-02
          0                 9           1             1    2     1       0.8673551350E-05       1    2    1         0.2254744008E-03      0.1226804053E-02

    ------------------------------------------------
       NWT REQUIRED            9 OUTER ITERATIONS 
       AND A TOTAL OF         14 INNER ITERATIONS.
    ------------------------------------------------

 NO OUTPUT CONTROL FOR STRESS PERIOD    7   TIME STEP   24
 
 SOLVING FOR HEAD 
                                                   Max.-Head-Change                         Max.-Flux-Residual
  Residual-Control   Outer-Iter.   Inner-Iter.     Column Row Layer    Maximum-Head-Change  Column Row Layer    Maximum-Flux-Residual          L2-NORM 
          0                 1           2             2    2     1       0.1052376076E-01       2    2    1         0.5481240317E+00      0.1908898509E+01
          0                 2           2             2   13     1       0.2709805071E-02       2   13    1         0.1558524822E+00      0.5021519323E+00
          0                 3           2             1    2     1       0.1060172812E-02       1    2    1         0.2754722623E-01      0.1616617037E+00
          0                 4           2             1    2     1       0.4760607829E-03       1    2    1         0.1237331327E-01      0.6873594096E-01
          0                 5           2             1    2     1       0.2137339193E-03       1    2    1         0.5555773325E-02      0.3054735460E-01
          0                 6           1             1    2     1       0.9595232654E-04       1    2    1         0.2494278816E-02      0.1366021806E-01
          0                 7           1             1    2     1       0.4307510257E-04       1    2    1         0.1119754872E-02      0.6114533949E-02
          0                 8           1             1    2     1       0.1933716299E-04       1    2    1         0.5026806599E-03      0.2737508957E-02
          0                 9           1             1    2     1       0.8680754548E-05       1    2    1         0.2256617708E-03      0.1225697392E-02

    ------------------------------------------------
       NWT REQUIRED            9 OUTER ITERATIONS 
       AND A TOTAL OF         14 INNER ITERATIONS.
    ------------------------------------------------

 NO OUTPUT CONTROL FOR STRESS PERIOD    7   TIME STEP   25
 
 SOLVING FOR HEAD 
                                                   Max.-Head-Change                         Max.-Flux-Residual
  Residual-Control   Outer-Iter.   Inner-Iter.     Column Row Layer    Maximum-Head-Change  Column Row Layer    Maximum-Flux-Residual          L2-NORM 
          0                 1           2             2    2     1       0.1048755966E-01       2    2    1         0.5462207744E+00      0.1896365599E+01
          0                 2           2             2   13     1       0.2642561724E-02       2   13    1         0.1519419560E+00      0.5009281854E+00
          0                 3           2             1    2     1       0.1061045147E-02       1    2    1         0.2756994091E-01      0.1615036057E+00
          0                 4           2             1    2     1       0.4764518437E-03       1    2    1         0.1238348950E-01      0.6867634682E-01
          0                 5           2             1    2     1       0.2139092974E-03       1    2    1         0.5560335904E-02      0.3052081616E-01
          0                 6           1             1    2     1       0.9603098971E-04       1    2    1         0.2496325098E-02      0.1364826667E-01
          0                 7           1             1    2     1       0.4311038773E-04       1    2    1         0.1120672721E-02      0.6109146864E-02
          0                 8           1             1    2     1       0.1935299077E-04       1    2    1         0.5030923767E-03      0.2735081169E-02
          0                 9           1             1    2     1       0.8687854700E-05       1    2    1         0.2258464562E-03      0.1224603944E-02

    ------------------------------------------------
       NWT REQUIRED            9 OUTER ITERATIONS 
       AND A TOTAL OF         14 INNER ITERATIONS.
    ------------------------------------------------

 NO OUTPUT CONTROL FOR STRESS PERIOD    7   TIME STEP   26
 
 SOLVING FOR HEAD 
                                                   Max.-Head-Change                         Max.-Flux-Residual
  Residual-Control   Outer-Iter.   Inner-Iter.     Column Row Layer    Maximum-Head-Change  Column Row Layer    Maximum-Flux-Residual          L2-NORM 
          0                 1           2             2    2     1       0.1045199861E-01       2    2    1         0.5443512616E+00      0.1885991815E+01
          0                 2           2             2   13     1       0.2581894926E-02       2   13    1         0.1484142130E+00      0.4998322306E+00
          0                 3           2             1    2     1       0.1061905046E-02       1    2    1         0.2759233200E-01      0.1613510507E+00
          0                 4           2             1    2     1       0.4768373246E-03       1    2    1         0.1239352064E-01      0.6861763985E-01
          0                 5           2             1    2     1       0.2140821706E-03       1    2    1         0.5564833370E-02      0.3049467422E-01
          0                 6           1             1    2     1       0.9610852839E-04       1    2    1         0.2498342148E-02      0.1363653308E-01
          0                 7           1             1    2     1       0.4314516792E-04       1    2    1         0.1121577439E-02      0.6103879857E-02
          0                 8           1             1    2     1       0.1936859169E-04       1    2    1         0.5034981926E-03      0.2732717654E-02
          0                 9           1             1    2     1       0.8694853057E-05       1    2    1         0.2260284932E-03      0.1223544110E-02

    ------------------------------------------------
       NWT REQUIRED            9 OUTER ITERATIONS 
       AND A TOTAL OF         14 INNER ITERATIONS.
    ------------------------------------------------

 NO OUTPUT CONTROL FOR STRESS PERIOD    7   TIME STEP   27
 
 SOLVING FOR HEAD 
                                                   Max.-Head-Change                         Max.-Flux-Residual
  Residual-Control   Outer-Iter.   Inner-Iter.     Column Row Layer    Maximum-Head-Change  Column Row Layer    Maximum-Flux-Residual          L2-NORM 
          0                 1           2             2    2     1       0.1041706435E-01       2    2    1         0.5425147523E+00      0.1877161764E+01
          0                 2           2             2   13     1       0.2527288633E-02       2   13    1         0.1452391608E+00      0.4988413959E+00
          0                 3           2             1    2     1       0.1062752699E-02       1    2    1         0.2761440440E-01      0.1612024490E+00
          0                 4           2             1    2     1       0.4772173113E-03       1    2    1         0.1240340891E-01      0.6855910042E-01
          0                 5           2             1    2     1       0.2142525778E-03       1    2    1         0.5569266728E-02      0.3046849832E-01
          0                 6           1             1    2     1       0.9618495957E-04       1    2    1         0.2500330421E-02      0.1362474844E-01
          0                 7           1             1    2     1       0.4317945089E-04       1    2    1         0.1122469246E-02      0.6098572386E-02
          0                 8           1             1    2     1       0.1938397002E-04       1    2    1         0.5038982174E-03      0.2730328090E-02
          0                 9           1             1    2     1       0.8701751120E-05       1    2    1         0.2262079235E-03      0.1222467442E-02

    ------------------------------------------------
       NWT REQUIRED            9 OUTER ITERATIONS 
       AND A TOTAL OF         14 INNER ITERATIONS.
    ------------------------------------------------

 NO OUTPUT CONTROL FOR STRESS PERIOD    7   TIME STEP   28
 
 SOLVING FOR HEAD 
                                                   Max.-Head-Change                         Max.-Flux-Residual
  Residual-Control   Outer-Iter.   Inner-Iter.     Column Row Layer    Maximum-Head-Change  Column Row Layer    Maximum-Flux-Residual          L2-NORM 
          0                 1           2             6   13     1      -0.1194517749E-01       6   13    1        -0.6498019442E+00      0.1976815578E+01
          0                 2           2             2   13     1       0.2475427966E-02       2   13    1         0.1422259623E+00      0.5048151293E+00
          0                 3           2             1    2     1       0.1063597423E-02       1    2    1         0.2763640035E-01      0.1612003223E+00
          0                 4           2             1    2     1       0.4775959847E-03       1    2    1         0.1241326301E-01      0.6849071653E-01
          0                 5           2             1    2     1       0.2144223952E-03       1    2    1         0.5573684766E-02      0.3043698017E-01
          0                 6           1             1    2     1       0.9626112664E-04       1    2    1         0.2502311824E-02      0.1361057148E-01
          0                 7           1             1    2     1       0.4321361556E-04       1    2    1         0.1123357965E-02      0.6092197391E-02
          0                 8           1             1    2     1       0.1939929432E-04       1    2    1         0.5042968473E-03      0.2727461351E-02
          0                 9           1             1    2     1       0.8708624921E-05       1    2    1         0.2263867340E-03      0.1221179448E-02

    ------------------------------------------------
       NWT REQUIRED            9 OUTER ITERATIONS 
       AND A TOTAL OF         14 INNER ITERATIONS.
    ------------------------------------------------

 NO OUTPUT CONTROL FOR STRESS PERIOD    7   TIME STEP   29
 
 SOLVING FOR HEAD 
                                                   Max.-Head-Change                         Max.-Flux-Residual
  Residual-Control   Outer-Iter.   Inner-Iter.     Column Row Layer    Maximum-Head-Change  Column Row Layer    Maximum-Flux-Residual          L2-NORM 
          0                 1           2             2   13     1      -0.1414536200E-01       2   13    1        -0.8052979780E+00      0.2188618224E+01
          0                 2           2             2   13     1       0.3167648183E-02       2   13    1         0.1814423919E+00      0.5340896003E+00
          0                 3           2             1    2     1       0.1063738012E-02       1    2    1         0.2764152884E-01      0.1610340282E+00
          0                 4           2             1    2     1       0.4776434393E-03       1    2    1         0.1241475627E-01      0.6832203330E-01
          0                 5           2             1    2     1       0.2144408976E-03       1    2    1         0.5574212585E-02      0.3037863874E-01
          0                 6           1             1    2     1       0.9626890809E-04       1    2    1         0.2502523044E-02      0.1358601399E-01
          0                 7           1             1    2     1       0.4321700007E-04       1    2    1         0.1123447875E-02      0.6081343317E-02
          0                 8           1             1    2     1       0.1940078774E-04       1    2    1         0.5043361639E-03      0.2722624607E-02
          0                 9           1             1    2     1       0.8709286965E-05       1    2    1         0.2264041102E-03      0.1219025465E-02

    ------------------------------------------------
       NWT REQUIRED            9 OUTER ITERATIONS 
       AND A TOTAL OF         14 INNER ITERATIONS.
    ------------------------------------------------

 NO OUTPUT CONTROL FOR STRESS PERIOD    7   TIME STEP   30



 STREAM LISTING     PERIOD      7   STEP       30

 LAYER ROW COL. STREAM  RCH.  FLOW INTO     FLOW TO   FLOW OUT OF   OVRLND.     DIRECT     STREAM       STREAM     STREAM     STREAM   STREAMBED  STREAMBED
                SEG.NO.  NO.  STRM. RCH.    AQUIFER    STRM. RCH.    RUNOFF     PRECIP       ET          HEAD       DEPTH      WIDTH   CONDCTNC.   GRADIENT

   1    1    1     1     1    7.6644E+01  4.2624E-01   7.6218E+01  0.000E+00  0.000E+00  0.000E+00  1.09475E+03  1.706E+00  2.013E+01  9.057E-02  1.569E+00
   1    2    2     1     2    7.6218E+01  6.6113E-01   7.5556E+01  0.000E+00  0.000E+00  0.000E+00  1.08976E+03  1.704E+00  2.008E+01  1.405E-01  1.568E+00
   1    3    3     1     3    7.5556E+01  5.6483E-01   7.4992E+01  0.000E+00  0.000E+00  0.000E+00  1.08412E+03  1.701E+00  2.002E+01  1.201E-01  1.567E+00
   1    3    4     1     4    7.4992E+01  5.2063E-01   7.4471E+01  0.000E+00  0.000E+00  0.000E+00  1.07910E+03  1.697E+00  1.997E+01  1.108E-01  1.566E+00
   1    4    5     2     1    7.2471E+01  4.1207E-01   7.2059E+01  0.000E+00  0.000E+00  0.000E+00  1.07422E+03  2.283E+00  1.200E+01  7.800E-02  1.761E+00
   1    5    6     2     2    7.2059E+01  3.1656E-01   7.1742E+01  0.000E+00  0.000E+00  0.000E+00  1.06879E+03  2.276E+00  1.200E+01  6.000E-02  1.759E+00
   1    6    6     2     3    7.1742E+01  3.1620E-01   7.1426E+01  0.000E+00  0.000E+00  0.000E+00  1.06406E+03  2.270E+00  1.200E+01  6.000E-02  1.757E+00
   1    7    6     2     4    7.1426E+01  3.1584E-01   7.1110E+01  0.000E+00  0.000E+00  0.000E+00  1.05934E+03  2.264E+00  1.200E+01  6.000E-02  1.755E+00
   1    8    6     2     5    7.1110E+01  3.1548E-01   7.0795E+01  0.000E+00  0.000E+00  0.000E+00  1.05462E+03  2.258E+00  1.200E+01  6.000E-02  1.753E+00
   1    3    5     3     1    2.0000E+00  2.8252E-01   1.7175E+00  0.000E+00  0.000E+00  0.000E+00  1.07555E+03  1.909E+00  9.636E+00  7.227E-02  1.955E+00
   1    3    6     3     2    1.7175E+00  2.4905E-01   1.4684E+00  0.000E+00  0.000E+00  0.000E+00  1.07264E+03  1.727E+00  8.909E+00  6.682E-02  1.864E+00
   1    3    7     3     3    1.4684E+00  1.9718E-01   1.2712E+00  0.000E+00  0.000E+00  0.000E+00  1.06987E+03  1.555E+00  8.218E+00  5.547E-02  1.777E+00
   1    4    8     3     4    1.2712E+00  2.2567E-01   1.0456E+00  0.000E+00  0.000E+00  0.000E+00  1.06682E+03  1.364E+00  7.455E+00  6.709E-02  1.682E+00
   1    5    8     3     5    1.0456E+00  1.5790E-01   8.8768E-01  0.000E+00  0.000E+00  0.000E+00  1.06362E+03  1.164E+00  6.655E+00  4.991E-02  1.582E+00
   1    6    8     3     6    8.8768E-01  5.5980E-02   8.3170E-01  0.000E+00  0.000E+00  0.000E+00  1.06158E+03  1.036E+00  6.145E+00  1.844E-02  1.518E+00
   1    5   10     4     1    1.0000E+01  9.0919E-02   9.9091E+00  0.000E+00  0.000E+00  0.000E+00  1.07836E+03  6.368E-01  1.000E+01  2.500E-02  1.212E+00
   1    5    9     4     2    9.9091E+00  1.8158E-01   9.7275E+00  0.000E+00  0.000E+00  0.000E+00  1.07154E+03  6.315E-01  1.000E+01  5.000E-02  1.211E+00
   1    6    8     4     3    9.7275E+00  1.2689E-01   9.6006E+00  0.000E+00  0.000E+00  0.000E+00  1.06381E+03  6.256E-01  1.000E+01  3.500E-02  1.209E+00
   1    6    8     5     1    1.0432E+01  2.2686E-01   1.0205E+01  0.000E+00  0.000E+00  0.000E+00  1.05868E+03  6.790E-01  1.542E+01  6.166E-02  1.226E+00
   1    7    7     5     2    1.0205E+01  2.7894E-01   9.9265E+00  0.000E+00  0.000E+00  0.000E+00  1.05417E+03  6.732E-01  1.519E+01  7.594E-02  1.224E+00
   1    8    7     5     3    9.9265E+00  1.9221E-01   9.7343E+00  0.000E+00  0.000E+00  0.000E+00  1.04992E+03  6.676E-01  1.497E+01  5.241E-02  1.223E+00
   1    8    6     5     4    9.7343E+00  1.3577E-01   9.5985E+00  0.000E+00  0.000E+00  0.000E+00  1.04691E+03  6.637E-01  1.482E+01  3.706E-02  1.221E+00
   1    9    6     6     1    8.0393E+01  3.2748E-01   8.0066E+01  0.000E+00  0.000E+00  0.000E+00  1.04519E+03  2.458E+00  1.200E+01  6.000E-02  1.819E+00
   1   10    7     6     2    8.0066E+01  3.2712E-01   7.9739E+01  0.000E+00  0.000E+00  0.000E+00  1.04063E+03  2.452E+00  1.200E+01  6.000E-02  1.817E+00
   1   11    7     6     3    7.9739E+01  3.2675E-01   7.9412E+01  0.000E+00  0.000E+00  0.000E+00  1.03608E+03  2.446E+00  1.200E+01  6.000E-02  1.815E+00
   1   12    7     6     4    7.9412E+01  3.2639E-01   7.9086E+01  0.000E+00  0.000E+00  0.000E+00  1.03153E+03  2.440E+00  1.200E+01  6.000E-02  1.813E+00
   1   13    7     6     5    7.9086E+01  1.9182E-02   7.9066E+01  0.000E+00  0.000E+00  0.000E+00  1.02835E+03  2.437E+00  1.200E+01  2.400E-02  2.664E-01
   1   14    9     7     1    1.5000E+02  1.1683E+00   1.4883E+02  0.000E+00  0.000E+00  0.000E+00  1.03987E+03  2.288E+00  5.530E+01  5.593E-01  6.963E-01
   1   13    8     7     2    1.4883E+02  1.6005E+00   1.4723E+02  0.000E+00  0.000E+00  0.000E+00  1.03478E+03  2.281E+00  5.526E+01  6.149E-01  8.677E-01
   1   13    7     7     3    1.4723E+02  1.1988E+00   1.4603E+02  0.000E+00  0.000E+00  0.000E+00  1.02969E+03  2.273E+00  5.523E+01  5.586E-01  7.154E-01
   1   13    6     8     1    2.2510E+02  8.9741E-01   2.2420E+02  0.000E+00  0.000E+00  0.000E+00  1.02515E+03  3.278E+00  4.752E+01  4.843E-01  6.177E-01
   1   13    5     8     2    2.2420E+02  1.7934E-01   2.2402E+02  0.000E+00  0.000E+00  0.000E+00  1.01890E+03  3.275E+00  4.748E+01  4.838E-01  1.236E-01
   1   13    4     8     3    2.2402E+02 -2.6100E+00   2.2663E+02  0.000E+00  0.000E+00  0.000E+00  1.01266E+03  3.281E+00  4.758E+01  4.848E+00 -1.794E-01
   1   13    3     8     4    2.2663E+02 -3.7063E+00   2.3034E+02  0.000E+00  0.000E+00  0.000E+00  1.00642E+03  3.298E+00  4.783E+01  4.874E+00 -2.535E-01
   1   13    2     8     5    2.3034E+02 -2.5540E+00   2.3289E+02  0.000E+00  0.000E+00  0.000E+00  1.00019E+03  3.315E+00  4.807E+01  4.899E+00 -1.738E-01
   1   13    1     8     6    2.3289E+02 -1.5847E+00   2.3448E+02  0.000E+00  0.000E+00  0.000E+00  9.95201E+02  3.326E+00  4.823E+01  2.949E+00 -1.791E-01
   1    6    8     9     1    0.0000E+00  0.0000E+00   0.0000E+00  0.000E+00  0.000E+00  0.000E+00  1.07850E+03  0.000E+00  4.000E+00  0.000E+00  1.000E+00





UNSATURATED ZONE PACKAGE VOLUMETRIC BUDGET FOR  TIME STEP    30 STRESS PERIOD    7
  ------------------------------------------------------------------------------



     CUMULATIVE VOLUMES      L**3       RATES FOR THIS TIME STEP      L**3/T
     ------------------                 ------------------------

           IN:                                      IN:
           ---                                      ---
        INFILTRATION =      151810.9953          INFILTRATION =       0.0000E+00

          OUT:                                     OUT:
          ----                                     ----
              UZF ET =   334103594.5433                UZF ET =          82.5068
        UZF RECHARGE =   415049522.2451          UZF RECHARGE =          24.7897

            IN - OUT =  -749001305.7931              IN - OUT =        -107.2965

          STORAGE:                                 STORAGE:
          --------                                 --------
      STORAGE CHANGE =  -748975957.2365        STORAGE CHANGE =        -107.2963

 PERCENT DISCREPANCY IS DIFFERENCE BETWEEN IN-OUT MINUS CHANGE IN STORAGE
 DIVIDED BY THE AVERAGE OF IN AND OUT TIMES 100

 PERCENT DISCREPANCY =          -0.00     PERCENT DISCREPANCY =          -0.00






1
  VOLUMETRIC BUDGET FOR ENTIRE MODEL AT END OF TIME STEP   30, STRESS PERIOD   7
  ------------------------------------------------------------------------------

     CUMULATIVE VOLUMES      L**3       RATES FOR THIS TIME STEP      L**3/T
     ------------------                 ------------------------

           IN:                                      IN:
           ---                                      ---
             STORAGE     =     4575404.0000               STORAGE     =           2.3379
       CONSTANT HEAD     =           0.0000         CONSTANT HEAD     =           0.0000
               WELLS     =           0.0000                 WELLS     =           0.0000
     HEAD DEP BOUNDS     =     4410987.0000       HEAD DEP BOUNDS     =           0.2744
      STREAM LEAKAGE     =   186131680.0000        STREAM LEAKAGE     =          12.6218
        UZF RECHARGE     =   415049504.0000          UZF RECHARGE     =          24.7897
               GW ET     =           0.0000                 GW ET     =           0.0000
     SURFACE LEAKAGE     =           0.0000       SURFACE LEAKAGE     =           0.0000
    SUPPLEMENTARY WELLS  =           0.0000      SUPPLEMENTARY WELLS  =           0.0000

                TOTAL IN =   610167552.0000                  TOTAL IN =          40.0238

          OUT:                                     OUT:
          ----                                     ----
             STORAGE     =   423015360.0000               STORAGE     =          24.7705
       CONSTANT HEAD     =           0.0000         CONSTANT HEAD     =           0.0000
               WELLS     =           0.0000                 WELLS     =           0.0000
     HEAD DEP BOUNDS     =     4634927.0000       HEAD DEP BOUNDS     =           0.2941
      STREAM LEAKAGE     =   171120080.0000        STREAM LEAKAGE     =          10.4551
        UZF RECHARGE     =           0.0000          UZF RECHARGE     =           0.0000
               GW ET     =    11291830.0000                 GW ET     =           4.5001
     SURFACE LEAKAGE     =           0.0000       SURFACE LEAKAGE     =           0.0000
    SUPPLEMENTARY WELLS  =       31277.4844      SUPPLEMENTARY WELLS  =           0.0000

               TOTAL OUT =   610093504.0000                 TOTAL OUT =          40.0198

                IN - OUT =       74048.0000                  IN - OUT =       4.0359E-03

     PERCENT DISCREPANCY =           0.01         PERCENT DISCREPANCY =           0.01






         TIME SUMMARY AT END OF TIME STEP   30 IN STRESS PERIOD    7
                    SECONDS     MINUTES      HOURS       DAYS        YEARS
                    -----------------------------------------------------------
   TIME STEP LENGTH  87600.      1460.0      24.333      1.0139     2.77588E-03
 STRESS PERIOD TIME 2.62800E+06  43800.      730.00      30.417     8.32763E-02
         TOTAL TIME 1.58544E+07 2.64240E+05  4404.0      183.50     0.50240    
1
1
                            STRESS PERIOD NO.    8, LENGTH =   2628000.    
                            -----------------------------------------------

                              NUMBER OF TIME STEPS =    30

                               MULTIPLIER FOR DELT =     1.000

                            INITIAL TIME STEP SIZE =   87600.00    

 WELL NO.  LAYER   ROW   COL   STRESS RATE         
 --------------------------------------------------
      1      1      6      4       0.000    
      2      1      6      7       0.000    
      3      1      7      4       0.000    
      4      1      7      5       0.000    
      5      1      8      4       0.000    
      6      1      8      5       0.000    
      7      1      9      4       0.000    
      8      1      9      5       0.000    
      9      1     10      4       0.000    
     10      1     10      5       0.000    

     10 WELLS

 REUSING NON-PARAMETER GHB CELLS FROM LAST STRESS PERIOD

      2 GHB CELLS

 REUSING STREAM SEGMENT DATA FROM LAST STRESS PERIOD



            AREAL INFILTRATION RATE
 READING ON UNIT   19 WITH FORMAT: (10F4.0)            

            1           2           3           4           5           6           7           8           9          10
 ........................................................................................................................
   1    0.000       0.000       0.000       0.000       0.000       0.000       0.000       0.000       0.000       0.000    
   2    0.000       0.000       0.000       0.000       0.000       0.000       0.000       0.000       0.000       0.000    
   3    0.000       0.000       0.000       0.000       0.000       0.000       0.000       0.000       0.000       0.000    
   4    0.000       0.000       0.000       0.000       0.000       0.000       0.000       0.000       0.000       0.000    
   5    0.000       0.000       0.000       0.000       0.000       0.000       0.000       0.000       0.000       0.000    
   6    0.000       0.000       0.000       0.000       0.000       0.000       0.000       0.000       0.000       0.000    
   7    0.000       0.000       0.000       0.000       0.000       0.000       0.000       0.000       0.000       0.000    
   8    0.000       0.000       0.000       0.000       0.000       0.000       0.000       0.000       0.000       0.000    
   9    0.000       0.000       0.000       0.000       0.000       0.000       0.000       0.000       0.000       0.000    
  10    0.000       0.000       0.000       0.000       0.000       0.000       0.000       0.000       0.000       0.000    
  11    0.000       0.000       0.000       0.000       0.000       0.000       0.000       0.000       0.000       0.000    
  12    0.000       0.000       0.000       0.000       0.000       0.000       0.000       0.000       0.000       0.000    
  13    0.000       0.000       0.000       0.000       0.000       0.000       0.000       0.000       0.000       0.000    
  14    0.000       0.000       0.000       0.000       0.000       0.000       0.000       0.000       0.000       0.000    
  15    0.000       0.000       0.000       0.000       0.000       0.000       0.000       0.000       0.000       0.000    

                  ET RATE =  8.000000E-08

 USING ET EXTINCTION DEPTH FROM PREVIOUS STRESS PERIOD. CURRENT PERIOD IS:       8

 USING EXTINCTION WATER CONTENT FROM PREVIOUS STRESS PERIOD. CURRENT PERIOD IS:       8

 PROCESSING AGO STRESS PERIOD DATA

 READING AGO STRESS PERIOD DATA

 READING IRRIGATION STREAM

 READING IRRIGATION WELL

 READING SUPPLEMENTAL WEL

 END PROCESSING AGO STRESS PERIOD DATA OPTIONS
 
 SOLVING FOR HEAD 
                                                   Max.-Head-Change                         Max.-Flux-Residual
  Residual-Control   Outer-Iter.   Inner-Iter.     Column Row Layer    Maximum-Head-Change  Column Row Layer    Maximum-Flux-Residual          L2-NORM 
          0                 1           2             2   13     1      -0.4009922314E-01       2   13    1        -0.2268018166E+01      0.4956557051E+01
          0                 2           2             2   13     1       0.5614068623E-02       2   13    1         0.3204699768E+00      0.7614951394E+00
          0                 3           2             1    2     1       0.1063416284E-02       4    6    1         0.5763289244E-01      0.1773432967E+00
          0                 4           2             1    2     1       0.4774842361E-03       1    2    1         0.1241086281E-01      0.6896130124E-01
          0                 5           2             1    2     1       0.2143667785E-03       1    2    1         0.5572330199E-02      0.3032913256E-01
          0                 6           1             1    2     1       0.9623513560E-04       1    2    1         0.2501653651E-02      0.1354388197E-01
          0                 7           1             1    2     1       0.4320173554E-04       1    2    1         0.1123052907E-02      0.6061198063E-02
          0                 8           1             1    2     1       0.1939390893E-04       1    2    1         0.5041578291E-03      0.2713797481E-02
          0                 9           2             4    6     1      -0.1382918868E-02       4    6    1        -0.7763267667E-01      0.7764219372E-01
          0                10           2             4    6     1      -0.2577377128E-03       4    6    1        -0.1445508803E-01      0.1493454713E-01
                                                   Max.-Head-Change                         Max.-Flux-Residual
  Residual-Control   Outer-Iter.   Inner-Iter.     Column Row Layer    Maximum-Head-Change  Column Row Layer    Maximum-Flux-Residual          L2-NORM 
          0                11           2             4    6     1       0.1042603403E-02       4    6    1         0.5906745049E-01      0.5917473003E-01
          0                12           2             4    6     1      -0.5326317300E-03       4    6    1        -0.3045807765E-01      0.3046671475E-01
          0                13           2             4    6     1      -0.1477287719E-03       4    6    1        -0.8441742973E-02      0.8869782798E-02
          0                14           2             4    6     1       0.7902087435E-03       4    6    1         0.4558786988E-01      0.4567088864E-01
          0                15           2             4    6     1       0.2184338013E-03       4    6    1         0.1259360364E-01      0.1260693162E-01
          0                16           1             4    6     1       0.2654836525E-04       4    6    1         0.1527751860E-02      0.1596977547E-02
          0                17           1             4    6     1      -0.1690552936E-04       4    6    1        -0.9852524913E-03      0.1104389358E-02
          0                18           1             4    6     1      -0.3091243085E-04       4    6    1        -0.1799626564E-02      0.1883584879E-02
          0                19           1             4    6     1      -0.4058281796E-04       4    6    1        -0.2362165588E-02      0.2444546553E-02
          0                20           1             4    6     1      -0.5188395852E-04       4    6    1        -0.3019806418E-02      0.3104586264E-02
                                                   Max.-Head-Change                         Max.-Flux-Residual
  Residual-Control   Outer-Iter.   Inner-Iter.     Column Row Layer    Maximum-Head-Change  Column Row Layer    Maximum-Flux-Residual          L2-NORM 
          0                21           1             4    6     1      -0.6751369691E-04       4    6    1        -0.3929437624E-02      0.4017321465E-02
          0                22           2             4    6     1      -0.1064185612E-03       4    6    1        -0.6193876616E-02      0.6272099365E-02
          0                23           2             4    6     1      -0.1393763805E-03       4    6    1        -0.8111858829E-02      0.8205569397E-02
          0                24           2             4    6     1      -0.2115620918E-03       4    6    1        -0.1231324263E-01      0.1241008273E-01
          0                25           1             4    6     1       0.3121155606E-04       4    6    1         0.1835841151E-02      0.2744453021E-02
          0                26           2             4    6     1      -0.2337764981E-03       4    6    1        -0.1385675782E-01      0.1397419562E-01
          0                27           2             4    6     1      -0.3529051679E-03       4    6    1        -0.2091588656E-01      0.2106401740E-01
          0                28           2             4    6     1       0.8235296230E-03       4    6    1         0.4926178575E-01      0.4937268857E-01
          0                29           2             4    6     1       0.2066466069E-03       4    6    1         0.1235333859E-01      0.1237680826E-01
          0                30           1             4    6     1       0.1783073284E-04       4    6    1         0.1063028140E-02      0.1322772075E-02
                                                   Max.-Head-Change                         Max.-Flux-Residual
  Residual-Control   Outer-Iter.   Inner-Iter.     Column Row Layer    Maximum-Head-Change  Column Row Layer    Maximum-Flux-Residual          L2-NORM 
          0                31           1             4    6     1      -0.1728108636E-04       4    6    1        -0.1044016082E-02      0.1353955794E-02
          0                32           1             4    6     1      -0.4726645664E-04       4    6    1        -0.2852880140E-02      0.2997546005E-02
          0                33           1             4    6     1      -0.6538140075E-04       4    6    1        -0.3945661166E-02      0.4080398303E-02
          0                34           1             4    6     1      -0.8489115282E-04       4    6    1        -0.5122805625E-02      0.5259091974E-02
          0                35           2             4    6     1      -0.1115901587E-03       4    6    1        -0.6733859572E-02      0.6873878737E-02
          0                36           2             4    6     1      -0.1516158471E-03       4    6    1        -0.9149125194E-02      0.9294236625E-02
          0                37           1             4    6     1       0.3619910571E-04       4    6    1         0.2206261055E-02      0.2965407964E-02
          0                38           2             4    6     1      -0.1365523020E-03       4    6    1        -0.8391389061E-02      0.8573928614E-02
          0                39           2             4    6     1      -0.2028058705E-03       4    6    1        -0.1246158576E-01      0.1265268367E-01
          0                40           2             4    6     1      -0.2966365563E-03       4    6    1        -0.1822663563E-01      0.1842011890E-01
                                                   Max.-Head-Change                         Max.-Flux-Residual
  Residual-Control   Outer-Iter.   Inner-Iter.     Column Row Layer    Maximum-Head-Change  Column Row Layer    Maximum-Flux-Residual          L2-NORM 
          0                41           2             4    6     1       0.7450829729E-03       4    6    1         0.4620418033E-01      0.4632618898E-01
          0                42           2             4    6     1       0.1969780938E-03       4    6    1         0.1220839161E-01      0.1224520536E-01
          0                43           1             4    6     1       0.1381157324E-04       4    6    1         0.8533063540E-03      0.1327084551E-02
          0                44           1             4    6     1      -0.4163942658E-04       4    6    1        -0.2606206041E-02      0.2835589333E-02
          0                45           1             4    6     1      -0.6662034783E-04       4    6    1        -0.4168149207E-02      0.4350843802E-02
          0                46           1             4    6     1      -0.8723138454E-04       4    6    1        -0.5457178260E-02      0.5635135486E-02
          0                47           2             4    6     1      -0.1123274453E-03       4    6    1        -0.7026961791E-02      0.7208475039E-02
          0                48           2             4    6     1      -0.1476663278E-03       4    6    1        -0.9237564893E-02      0.9422966359E-02
          0                49           1             4    6     1       0.2809252607E-04       4    6    1         0.1775103449E-02      0.2826383601E-02
          0                50           2             4    6     1      -0.1265372968E-03       4    6    1        -0.8060349153E-02      0.8300915078E-02
                                                   Max.-Head-Change                         Max.-Flux-Residual
  Residual-Control   Outer-Iter.   Inner-Iter.     Column Row Layer    Maximum-Head-Change  Column Row Layer    Maximum-Flux-Residual          L2-NORM 
          0                51           2             4    6     1      -0.1927695345E-03       4    6    1        -0.1227836467E-01      0.1251054440E-01
          0                52           2             4    6     1      -0.2743077899E-03       4    6    1        -0.1747141763E-01      0.1770281793E-01
          0                53           2             4    6     1       0.6608993549E-03       4    6    1         0.4248141751E-01      0.4262575220E-01
          0                54           2             4    6     1       0.1742602728E-03       4    6    1         0.1119567678E-01      0.1126494953E-01
          0                55           1             4   13     1      -0.1271307091E-04       4   13    1        -0.7738892846E-03      0.1395398588E-02
          0                56           1             4    6     1      -0.6761033164E-04       4    6    1        -0.4385332239E-02      0.4644266469E-02
          0                57           2             4    6     1      -0.1034764836E-03       4    6    1        -0.6710230871E-02      0.6928504814E-02
          0                58           2             4    6     1      -0.1384532495E-03       4    6    1        -0.8977842618E-02      0.9192425834E-02
          0                59           1             4   13     1      -0.2132604559E-04       4   13    1        -0.1298124823E-02      0.2539244484E-02
          0                60           2             4    6     1      -0.1177020855E-03       4    6    1        -0.7770742632E-02      0.8051547110E-02
                                                   Max.-Head-Change                         Max.-Flux-Residual
  Residual-Control   Outer-Iter.   Inner-Iter.     Column Row Layer    Maximum-Head-Change  Column Row Layer    Maximum-Flux-Residual          L2-NORM 
          0                61           2             4    6     1      -0.1816008489E-03       4    6    1        -0.1198865143E-01      0.1224597196E-01
          0                62           2             4    6     1      -0.2545115393E-03       4    6    1        -0.1680148952E-01      0.1705616561E-01
          0                63           2             4    6     1       0.5633366063E-03       4    6    1         0.3752846310E-01      0.3769512953E-01
          0                64           2             4    6     1       0.1447792015E-03       4    6    1         0.9640661534E-02      0.9757503753E-02
          0                65           1             4    6     1      -0.2371278773E-04       4    6    1        -0.1595810260E-02      0.2315867976E-02
          0                66           2             4    6     1      -0.9401765226E-04       4    6    1        -0.6319351355E-02      0.6594775042E-02
          0                67           2             4    6     1      -0.1414186839E-03       4    6    1        -0.9504090330E-02      0.9744991359E-02
          0                68           1             4   13     1      -0.2318819457E-04       4   13    1        -0.1411244436E-02      0.2496876210E-02
          0                69           2             4    6     1      -0.1287618676E-03       4    6    1        -0.8809365243E-02      0.9114484139E-02
          0                70           2             4    6     1      -0.2007107302E-03       4    6    1        -0.1373119564E-01      0.1400604435E-01
                                                   Max.-Head-Change                         Max.-Flux-Residual
  Residual-Control   Outer-Iter.   Inner-Iter.     Column Row Layer    Maximum-Head-Change  Column Row Layer    Maximum-Flux-Residual          L2-NORM 
          0                71           2             4    6     1      -0.2839820335E-03       4    6    1        -0.1942753178E-01      0.1969837973E-01
          0                72           2             4    6     1       0.6495123081E-03       4    6    1         0.4483743950E-01      0.4501020257E-01
          0                73           1             4    6     1       0.2195316147E-04       4    6    1         0.1511638513E-02      0.2130947283E-02
          0                74           2             4    6     1      -0.1016055419E-03       4    6    1        -0.7077477420E-02      0.7418871281E-02
          0                75           1             4   13     1      -0.2375529058E-04       4   13    1        -0.1445576164E-02      0.2558091901E-02
          0                76           2             4    6     1      -0.1282186045E-03       4    6    1        -0.8929404163E-02      0.9254992827E-02
          0                77           2             4    6     1      -0.2033260901E-03       4    6    1        -0.1415911124E-01      0.1444467476E-01
          0                78           2             4    6     1      -0.2887893434E-03       4    6    1        -0.2010993291E-01      0.2038974105E-01
          0                79           2             4    6     1       0.5735275228E-03       4    6    1         0.4029987424E-01      0.4050453179E-01
          0                80           1             4    6     1      -0.2068030929E-04       4    6    1        -0.1469173830E-02      0.2336636046E-02
                                                   Max.-Head-Change                         Max.-Flux-Residual
  Residual-Control   Outer-Iter.   Inner-Iter.     Column Row Layer    Maximum-Head-Change  Column Row Layer    Maximum-Flux-Residual          L2-NORM 
          0                81           1             4   13     1      -0.2444997822E-04       4   13    1        -0.1487675869E-02      0.2749122240E-02
          0                82           2             4    6     1      -0.1236731770E-03       4    6    1        -0.8923942125E-02      0.9277145421E-02
          0                83           2             4    6     1      -0.2078448922E-03       4    6    1        -0.1499615519E-01      0.1528819049E-01
          0                84           2             4    6     1      -0.1732923071E-03       4    6    1        -0.1250205203E-01      0.1298541484E-01
          0                85           2             4    6     1       0.4245336691E-03       4    6    1         0.3090488552E-01      0.3114030999E-01
          0                86           1             4    6     1       0.5144331852E-04       4    6    1         0.3742538078E-02      0.4309046099E-02
          0                87           2             4    6     1      -0.9928659240E-04       4    6    1        -0.7292420414E-02      0.7730320132E-02
          0                88           2             4    6     1      -0.1944707228E-03       4    6    1        -0.1428109244E-01      0.1458355378E-01
          0                89           2             4    6     1      -0.1672103129E-03       4    6    1        -0.1227799185E-01      0.1276258690E-01
          0                90           2             4    6     1       0.3536928467E-03       4    6    1         0.2620538399E-01      0.2647821897E-01
                                                   Max.-Head-Change                         Max.-Flux-Residual
  Residual-Control   Outer-Iter.   Inner-Iter.     Column Row Layer    Maximum-Head-Change  Column Row Layer    Maximum-Flux-Residual          L2-NORM 
          0                91           1             4    6     1       0.2194183320E-04       4    6    1         0.1623845476E-02      0.2836421373E-02
          0                92           2             4    6     1      -0.1285218444E-03       4    6    1        -0.9606546716E-02      0.9999443050E-02
          0                93           2             4    6     1      -0.1329519215E-03       4    6    1        -0.9936259723E-02      0.1045066081E-01
          0                94           2             4    6     1       0.8393759068E-03       4    6    1         0.6329015446E-01      0.6338769994E-01
          0                95           2             4    6     1       0.4630977900E-03       4    6    1         0.3491228226E-01      0.3491446122E-01
          0                96           2             4    6     1       0.1817918007E-03       4    6    1         0.1370215732E-01      0.1370330909E-01
          0                97           1             4    6     1       0.7137129682E-04       4    6    1         0.5378419582E-02      0.5379562979E-02
          0                98           1             4    6     1       0.2802336777E-04       4    6    1         0.2111395876E-02      0.2112320813E-02
          0                99           1             4    6     1       0.1100445860E-04       4    6    1         0.8289573279E-03      0.8296632487E-03
          0               100           1             4    6     1       0.4321932840E-05       4    6    1         0.3254953140E-03      0.3260309621E-03

    ------------------------------------------------
       NWT REQUIRED          100 OUTER ITERATIONS 
       AND A TOTAL OF        164 INNER ITERATIONS.
    ------------------------------------------------

 NO OUTPUT CONTROL FOR STRESS PERIOD    8   TIME STEP    1
 
 SOLVING FOR HEAD 
                                                   Max.-Head-Change                         Max.-Flux-Residual
  Residual-Control   Outer-Iter.   Inner-Iter.     Column Row Layer    Maximum-Head-Change  Column Row Layer    Maximum-Flux-Residual          L2-NORM 
          0                 1           2             2   13     1      -0.3696726266E-01       2   13    1        -0.2090491812E+01      0.4675765857E+01
          0                 2           2             2   13     1       0.5299762143E-02       2   13    1         0.3024884399E+00      0.7353465344E+00
          0                 3           2             4    6     1       0.1205483332E-02       4    6    1         0.6662586512E-01      0.1793805727E+00
          0                 4           2             1    2     1       0.4774186832E-03       1    2    1         0.1240916622E-01      0.6814389356E-01
          0                 5           2             4    6     1      -0.2929123928E-03       4    6    1        -0.1648227609E-01      0.3440298324E-01
          0                 6           1             1    2     1       0.9622179193E-04       1    2    1         0.2501308162E-02      0.1364858218E-01
          0                 7           2             4    6     1      -0.4792479586E-03       4    6    1        -0.2690893426E-01      0.2763082029E-01
          0                 8           2             4    6     1       0.8459510120E-03       4    6    1         0.4792588374E-01      0.4809517685E-01
          0                 9           2             4    6     1       0.2297295261E-03       4    6    1         0.1300570230E-01      0.1307138810E-01
          0                10           1             4    6     1       0.3136564242E-04       4    6    1         0.1772620576E-02      0.1893896259E-02
          0                11           1             4    6     1      -0.8521571390E-05       4    6    1        -0.4884776058E-03      0.6731347394E-03

    ------------------------------------------------
       NWT REQUIRED           11 OUTER ITERATIONS 
       AND A TOTAL OF         19 INNER ITERATIONS.
    ------------------------------------------------

 NO OUTPUT CONTROL FOR STRESS PERIOD    8   TIME STEP    2
 
 SOLVING FOR HEAD 
                                                   Max.-Head-Change                         Max.-Flux-Residual
  Residual-Control   Outer-Iter.   Inner-Iter.     Column Row Layer    Maximum-Head-Change  Column Row Layer    Maximum-Flux-Residual          L2-NORM 
          0                 1           2             6   13     1      -0.3443456098E-01       2   13    1        -0.1934690501E+01      0.4431959682E+01
          0                 2           2             2   13     1       0.5083772366E-02       2   13    1         0.2901356253E+00      0.7159127006E+00
          0                 3           2             1    2     1       0.1063133839E-02       4    6    1         0.5714292043E-01      0.1748023922E+00
          0                 4           2             1    2     1       0.4773567185E-03       1    2    1         0.1240756287E-01      0.6846167742E-01
          0                 5           2             1    2     1       0.2143092332E-03       1    2    1         0.5570840594E-02      0.3013542836E-01
          0                 6           1             1    2     1       0.9620917182E-04       1    2    1         0.2500981476E-02      0.1346390870E-01
          0                 7           1             1    2     1       0.4319002209E-04       1    2    1         0.1122749640E-02      0.6035113106E-02
          0                 8           1             1    2     1       0.1938862434E-04       1    2    1         0.5040210116E-03      0.2722655128E-02
          0                 9           1             1    2     1       0.8703807282E-05       1    2    1         0.2262620619E-03      0.1258684188E-02

    ------------------------------------------------
       NWT REQUIRED            9 OUTER ITERATIONS 
       AND A TOTAL OF         14 INNER ITERATIONS.
    ------------------------------------------------

 NO OUTPUT CONTROL FOR STRESS PERIOD    8   TIME STEP    3
 
 SOLVING FOR HEAD 
                                                   Max.-Head-Change                         Max.-Flux-Residual
  Residual-Control   Outer-Iter.   Inner-Iter.     Column Row Layer    Maximum-Head-Change  Column Row Layer    Maximum-Flux-Residual          L2-NORM 
          0                 1           2             6   13     1      -0.3334768814E-01       2   13    1        -0.1792144590E+01      0.4223739201E+01
          0                 2           2             2   13     1       0.4868645171E-02       2   13    1         0.2778336916E+00      0.6982661066E+00
          0                 3           2             1    2     1       0.1062988024E-02       4    6    1         0.4570172566E-01      0.1702995059E+00
          0                 4           2             1    2     1       0.4772908975E-03       1    2    1         0.1240585931E-01      0.6831595690E-01
          0                 5           2             1    2     1       0.2142795347E-03       1    2    1         0.5570071729E-02      0.3005571390E-01
          0                 6           1             1    2     1       0.9619577488E-04       1    2    1         0.2500634588E-02      0.1343409765E-01
          0                 7           1             1    2     1       0.4318397865E-04       1    2    1         0.1122593151E-02      0.6023873868E-02
          0                 8           1             1    2     1       0.1938589838E-04       1    2    1         0.5039504225E-03      0.2705067983E-02
          0                 9           1             1    2     1       0.8702577486E-05       1    2    1         0.2262302223E-03      0.1213344178E-02

    ------------------------------------------------
       NWT REQUIRED            9 OUTER ITERATIONS 
       AND A TOTAL OF         14 INNER ITERATIONS.
    ------------------------------------------------

 NO OUTPUT CONTROL FOR STRESS PERIOD    8   TIME STEP    4
 
 SOLVING FOR HEAD 
                                                   Max.-Head-Change                         Max.-Flux-Residual
  Residual-Control   Outer-Iter.   Inner-Iter.     Column Row Layer    Maximum-Head-Change  Column Row Layer    Maximum-Flux-Residual          L2-NORM 
          0                 1           2             7   13     1      -0.3704000842E-01       7   13    1        -0.1986374868E+01      0.4477398448E+01
          0                 2           2             2   13     1       0.4657381387E-02       2   13    1         0.2657542285E+00      0.7087581669E+00
          0                 3           2             1    2     1       0.1062840402E-02       4    6    1         0.4274398558E-01      0.1694103850E+00
          0                 4           2             1    2     1       0.4772242669E-03       1    2    1         0.1240413467E-01      0.6794319838E-01
          0                 5           2             1    2     1       0.2142494731E-03       1    2    1         0.5569293410E-02      0.2995851106E-01
          0                 6           1             1    2     1       0.9618221410E-04       1    2    1         0.2500283454E-02      0.1341792707E-01
          0                 7           1             1    2     1       0.4317786194E-04       1    2    1         0.1122434765E-02      0.5986379966E-02
          0                 8           1             1    2     1       0.1938313990E-04       4    6    1        -0.5393302108E-03      0.2733774093E-02
          0                 9           1             1    2     1       0.8701333434E-05       4    6    1         0.2355415677E-03      0.1223074204E-02

    ------------------------------------------------
       NWT REQUIRED            9 OUTER ITERATIONS 
       AND A TOTAL OF         14 INNER ITERATIONS.
    ------------------------------------------------

 OUTPUT CONTROL FOR STRESS PERIOD    8   TIME STEP    5
    PRINT BUDGET
    SAVE BUDGET
 UBUDSV SAVING "         STORAGE" ON UNIT102 AT TIME STEP     5, STRESS PERIOD    8
 UBUDSV SAVING "   CONSTANT HEAD" ON UNIT102 AT TIME STEP     5, STRESS PERIOD    8
 UBUDSV SAVING "FLOW RIGHT FACE " ON UNIT102 AT TIME STEP     5, STRESS PERIOD    8
 UBUDSV SAVING "FLOW FRONT FACE " ON UNIT102 AT TIME STEP     5, STRESS PERIOD    8

  HEAD DEP BOUNDS   PERIOD    8   STEP     5
 BOUNDARY      1   LAYER   1   ROW    13   COL     1   RATE   -0.289286    
 BOUNDARY      2   LAYER   1   ROW    14   COL     9   RATE    0.274297    



 STREAM LISTING     PERIOD      8   STEP        5

 LAYER ROW COL. STREAM  RCH.  FLOW INTO     FLOW TO   FLOW OUT OF   OVRLND.     DIRECT     STREAM       STREAM     STREAM     STREAM   STREAMBED  STREAMBED
                SEG.NO.  NO.  STRM. RCH.    AQUIFER    STRM. RCH.    RUNOFF     PRECIP       ET          HEAD       DEPTH      WIDTH   CONDCTNC.   GRADIENT

   1    1    1     1     1    6.3000E+01  3.8236E-01   6.2618E+01  0.000E+00  0.000E+00  0.000E+00  1.09461E+03  1.562E+00  1.863E+01  8.382E-02  1.521E+00
   1    2    2     1     2    6.2618E+01  5.9218E-01   6.2025E+01  0.000E+00  0.000E+00  0.000E+00  1.08961E+03  1.556E+00  1.857E+01  1.300E-01  1.519E+00
   1    3    3     1     3    6.2025E+01  5.0506E-01   6.1520E+01  0.000E+00  0.000E+00  0.000E+00  1.08397E+03  1.549E+00  1.850E+01  1.110E-01  1.516E+00
   1    3    4     1     4    6.1520E+01  4.6510E-01   6.1055E+01  0.000E+00  0.000E+00  0.000E+00  1.07895E+03  1.543E+00  1.845E+01  1.024E-01  1.514E+00
   1    4    5     2     1    5.9055E+01  3.9145E-01   5.8664E+01  0.000E+00  0.000E+00  0.000E+00  1.07395E+03  2.019E+00  1.200E+01  7.800E-02  1.673E+00
   1    5    6     2     2    5.8664E+01  3.0068E-01   5.8363E+01  0.000E+00  0.000E+00  0.000E+00  1.06852E+03  2.011E+00  1.200E+01  6.000E-02  1.670E+00
   1    6    6     2     3    5.8363E+01  3.0031E-01   5.8063E+01  0.000E+00  0.000E+00  0.000E+00  1.06380E+03  2.005E+00  1.200E+01  6.000E-02  1.668E+00
   1    7    6     2     4    5.8063E+01  2.9994E-01   5.7763E+01  0.000E+00  0.000E+00  0.000E+00  1.05907E+03  1.999E+00  1.200E+01  6.000E-02  1.666E+00
   1    8    6     2     5    5.7763E+01  2.9957E-01   5.7463E+01  0.000E+00  0.000E+00  0.000E+00  1.05435E+03  1.993E+00  1.200E+01  6.000E-02  1.664E+00
   1    3    5     3     1    2.0000E+00  2.8252E-01   1.7175E+00  0.000E+00  0.000E+00  0.000E+00  1.07555E+03  1.909E+00  9.636E+00  7.227E-02  1.955E+00
   1    3    6     3     2    1.7175E+00  2.4905E-01   1.4684E+00  0.000E+00  0.000E+00  0.000E+00  1.07264E+03  1.727E+00  8.909E+00  6.682E-02  1.864E+00
   1    3    7     3     3    1.4684E+00  1.9718E-01   1.2712E+00  0.000E+00  0.000E+00  0.000E+00  1.06987E+03  1.555E+00  8.218E+00  5.547E-02  1.777E+00
   1    4    8     3     4    1.2712E+00  2.2567E-01   1.0456E+00  0.000E+00  0.000E+00  0.000E+00  1.06682E+03  1.364E+00  7.455E+00  6.709E-02  1.682E+00
   1    5    8     3     5    1.0456E+00  1.5790E-01   8.8768E-01  0.000E+00  0.000E+00  0.000E+00  1.06362E+03  1.164E+00  6.655E+00  4.991E-02  1.582E+00
   1    6    8     3     6    8.8768E-01  5.5980E-02   8.3170E-01  0.000E+00  0.000E+00  0.000E+00  1.06158E+03  1.036E+00  6.145E+00  1.844E-02  1.518E+00
   1    5   10     4     1    1.0000E+01  9.0919E-02   9.9091E+00  0.000E+00  0.000E+00  0.000E+00  1.07836E+03  6.368E-01  1.000E+01  2.500E-02  1.212E+00
   1    5    9     4     2    9.9091E+00  1.8158E-01   9.7275E+00  0.000E+00  0.000E+00  0.000E+00  1.07154E+03  6.315E-01  1.000E+01  5.000E-02  1.211E+00
   1    6    8     4     3    9.7275E+00  1.2689E-01   9.6006E+00  0.000E+00  0.000E+00  0.000E+00  1.06381E+03  6.256E-01  1.000E+01  3.500E-02  1.209E+00
   1    6    8     5     1    1.0432E+01  2.2686E-01   1.0205E+01  0.000E+00  0.000E+00  0.000E+00  1.05868E+03  6.790E-01  1.542E+01  6.166E-02  1.226E+00
   1    7    7     5     2    1.0205E+01  2.7894E-01   9.9265E+00  0.000E+00  0.000E+00  0.000E+00  1.05417E+03  6.732E-01  1.519E+01  7.594E-02  1.224E+00
   1    8    7     5     3    9.9265E+00  1.9221E-01   9.7343E+00  0.000E+00  0.000E+00  0.000E+00  1.04992E+03  6.676E-01  1.497E+01  5.241E-02  1.223E+00
   1    8    6     5     4    9.7343E+00  1.3577E-01   9.5985E+00  0.000E+00  0.000E+00  0.000E+00  1.04691E+03  6.637E-01  1.482E+01  3.706E-02  1.221E+00
   1    9    6     6     1    6.7061E+01  3.1225E-01   6.6749E+01  0.000E+00  0.000E+00  0.000E+00  1.04493E+03  2.204E+00  1.200E+01  6.000E-02  1.735E+00
   1   10    7     6     2    6.6749E+01  3.1188E-01   6.6437E+01  0.000E+00  0.000E+00  0.000E+00  1.04038E+03  2.198E+00  1.200E+01  6.000E-02  1.733E+00
   1   11    7     6     3    6.6437E+01  3.1151E-01   6.6125E+01  0.000E+00  0.000E+00  0.000E+00  1.03583E+03  2.192E+00  1.200E+01  6.000E-02  1.731E+00
   1   12    7     6     4    6.6125E+01  3.1114E-01   6.5814E+01  0.000E+00  0.000E+00  0.000E+00  1.03128E+03  2.186E+00  1.200E+01  6.000E-02  1.729E+00
   1   13    7     6     5    6.5814E+01  1.3978E-02   6.5800E+01  0.000E+00  0.000E+00  0.000E+00  1.02809E+03  2.182E+00  1.200E+01  2.400E-02  1.941E-01
   1   14    9     7     1    1.5000E+02  1.1674E+00   1.4883E+02  0.000E+00  0.000E+00  0.000E+00  1.03987E+03  2.288E+00  5.530E+01  5.593E-01  6.957E-01
   1   13    8     7     2    1.4883E+02  1.5981E+00   1.4723E+02  0.000E+00  0.000E+00  0.000E+00  1.03478E+03  2.281E+00  5.526E+01  6.149E-01  8.664E-01
   1   13    7     7     3    1.4723E+02  1.2197E+00   1.4601E+02  0.000E+00  0.000E+00  0.000E+00  1.02969E+03  2.273E+00  5.523E+01  5.586E-01  7.279E-01
   1   13    6     8     1    2.1181E+02  9.1576E-01   2.1090E+02  0.000E+00  0.000E+00  0.000E+00  1.02508E+03  3.203E+00  4.645E+01  4.733E-01  6.449E-01
   1   13    5     8     2    2.1090E+02  1.9373E-01   2.1071E+02  0.000E+00  0.000E+00  0.000E+00  1.01883E+03  3.200E+00  4.640E+01  4.729E-01  1.366E-01
   1   13    4     8     3    2.1071E+02 -2.2961E+00   2.1300E+02  0.000E+00  0.000E+00  0.000E+00  1.01258E+03  3.206E+00  4.649E+01  4.737E+00 -1.616E-01
   1   13    3     8     4    2.1300E+02 -3.3793E+00   2.1638E+02  0.000E+00  0.000E+00  0.000E+00  1.00635E+03  3.222E+00  4.672E+01  4.761E+00 -2.366E-01
   1   13    2     8     5    2.1638E+02 -2.1445E+00   2.1853E+02  0.000E+00  0.000E+00  0.000E+00  1.00011E+03  3.238E+00  4.695E+01  4.784E+00 -1.494E-01
   1   13    1     8     6    2.1853E+02 -1.4113E+00   2.1994E+02  0.000E+00  0.000E+00  0.000E+00  9.95123E+02  3.248E+00  4.709E+01  2.879E+00 -1.634E-01
   1    6    8     9     1    9.6152E-04  0.0000E+00   9.6152E-04  0.000E+00  0.000E+00  0.000E+00  1.07850E+03  1.716E-03  4.000E+00  0.000E+00  1.001E+00



 UBDSV3 SAVING "     NETRECHARGE" ON UNIT 100 AT TIME STEP     5, STRESS PERIOD   8
 UBDSV3 SAVING "    NETDISCHARGE" ON UNIT 101 AT TIME STEP     5, STRESS PERIOD   8
 UBDSV3 SAVING "           GW ET" ON UNIT  61 AT TIME STEP     5, STRESS PERIOD   8
 UBDSV3 SAVING "    UZF RECHARGE" ON UNIT  61 AT TIME STEP     5, STRESS PERIOD   8
 UBDSV3 SAVING " SURFACE LEAKAGE" ON UNIT  61 AT TIME STEP     5, STRESS PERIOD   8
 UBDSV3 SAVING "       HORT+DUNN" ON UNIT  61 AT TIME STEP     5, STRESS PERIOD   8
 UBDSV3 SAVING "  STORAGE CHANGE" ON UNIT  61 AT TIME STEP     5, STRESS PERIOD   8


UNSATURATED ZONE PACKAGE VOLUMETRIC BUDGET FOR  TIME STEP     5 STRESS PERIOD    8
  ------------------------------------------------------------------------------



     CUMULATIVE VOLUMES      L**3       RATES FOR THIS TIME STEP      L**3/T
     ------------------                 ------------------------

           IN:                                      IN:
           ---                                      ---
        INFILTRATION =      634987.9757          INFILTRATION =           0.0009

          OUT:                                     OUT:
          ----                                     ----
              UZF ET =   430249713.2152                UZF ET =         217.9989
        UZF RECHARGE =   425776936.2493          UZF RECHARGE =          24.3763

            IN - OUT =  -855391661.4888              IN - OUT =        -242.3743

          STORAGE:                                 STORAGE:
          --------                                 --------
      STORAGE CHANGE =  -855366232.7809        STORAGE CHANGE =        -242.3743

 PERCENT DISCREPANCY IS DIFFERENCE BETWEEN IN-OUT MINUS CHANGE IN STORAGE
 DIVIDED BY THE AVERAGE OF IN AND OUT TIMES 100

 PERCENT DISCREPANCY =          -0.00     PERCENT DISCREPANCY =           0.00






1
  VOLUMETRIC BUDGET FOR ENTIRE MODEL AT END OF TIME STEP    5, STRESS PERIOD   8
  ------------------------------------------------------------------------------

     CUMULATIVE VOLUMES      L**3       RATES FOR THIS TIME STEP      L**3/T
     ------------------                 ------------------------

           IN:                                      IN:
           ---                                      ---
             STORAGE     =     8783077.0000               STORAGE     =           9.9466
       CONSTANT HEAD     =           0.0000         CONSTANT HEAD     =           0.0000
               WELLS     =           0.0000                 WELLS     =           0.0000
     HEAD DEP BOUNDS     =     4531139.5000       HEAD DEP BOUNDS     =           0.2743
      STREAM LEAKAGE     =   191481648.0000        STREAM LEAKAGE     =          12.2936
        UZF RECHARGE     =   425776896.0000          UZF RECHARGE     =          24.3763
               GW ET     =           0.0000                 GW ET     =           0.0000
     SURFACE LEAKAGE     =           0.0000       SURFACE LEAKAGE     =           0.0000
    SUPPLEMENTARY WELLS  =           0.0000      SUPPLEMENTARY WELLS  =           0.0000

                TOTAL IN =   630572800.0000                  TOTAL IN =          46.8908

          OUT:                                     OUT:
          ----                                     ----
             STORAGE     =   433402432.0000               STORAGE     =          23.3662
       CONSTANT HEAD     =           0.0000         CONSTANT HEAD     =           0.0000
               WELLS     =           0.0000                 WELLS     =           0.0000
     HEAD DEP BOUNDS     =     4762426.5000       HEAD DEP BOUNDS     =           0.2893
      STREAM LEAKAGE     =   175548096.0000        STREAM LEAKAGE     =           9.2311
        UZF RECHARGE     =           0.0000          UZF RECHARGE     =           0.0000
               GW ET     =    16752506.0000                 GW ET     =          14.0000
     SURFACE LEAKAGE     =           0.0000       SURFACE LEAKAGE     =           0.0000
    SUPPLEMENTARY WELLS  =       32222.8047      SUPPLEMENTARY WELLS  =       1.2508E-04

               TOTAL OUT =   630497664.0000                 TOTAL OUT =          46.8867

                IN - OUT =       75136.0000                  IN - OUT =       4.0855E-03

     PERCENT DISCREPANCY =           0.01         PERCENT DISCREPANCY =           0.01






         TIME SUMMARY AT END OF TIME STEP    5 IN STRESS PERIOD    8
                    SECONDS     MINUTES      HOURS       DAYS        YEARS
                    -----------------------------------------------------------
   TIME STEP LENGTH  87600.      1460.0      24.333      1.0139     2.77588E-03
 STRESS PERIOD TIME 4.38000E+05  7300.0      121.67      5.0694     1.38794E-02
         TOTAL TIME 1.62924E+07 2.71540E+05  4525.7      188.57     0.51627    
1
 
 SOLVING FOR HEAD 
                                                   Max.-Head-Change                         Max.-Flux-Residual
  Residual-Control   Outer-Iter.   Inner-Iter.     Column Row Layer    Maximum-Head-Change  Column Row Layer    Maximum-Flux-Residual          L2-NORM 
          0                 1           2             7   13     1      -0.3588726606E-01       7   13    1        -0.1924122931E+01      0.4293809753E+01
          0                 2           2             2   13     1       0.4470070329E-02       2   13    1         0.2550457293E+00      0.6925557297E+00
          0                 3           2             1    2     1       0.1062700184E-02       4    6    1         0.4115913213E-01      0.1681139343E+00
          0                 4           2             1    2     1       0.4771609601E-03       1    2    1         0.1240249642E-01      0.6819549588E-01
          0                 5           2             1    2     1       0.2142209037E-03       1    2    1         0.5568553884E-02      0.2990443902E-01
          0                 6           1             1    2     1       0.9616932413E-04       1    2    1         0.2499949747E-02      0.1338630306E-01
          0                 7           1             1    2     1       0.4317204661E-04       1    2    1         0.1122284202E-02      0.5973668653E-02
          0                 8           1             1    2     1       0.1938051649E-04       1    2    1         0.5038110608E-03      0.2672348525E-02
          0                 9           1             1    2     1       0.8700149909E-05       1    2    1         0.2261673574E-03      0.1196534633E-02

    ------------------------------------------------
       NWT REQUIRED            9 OUTER ITERATIONS 
       AND A TOTAL OF         14 INNER ITERATIONS.
    ------------------------------------------------

 NO OUTPUT CONTROL FOR STRESS PERIOD    8   TIME STEP    6
 
 SOLVING FOR HEAD 
                                                   Max.-Head-Change                         Max.-Flux-Residual
  Residual-Control   Outer-Iter.   Inner-Iter.     Column Row Layer    Maximum-Head-Change  Column Row Layer    Maximum-Flux-Residual          L2-NORM 
          0                 1           2             7   13     1      -0.3477939395E-01       7   13    1        -0.1864297467E+01      0.4125731052E+01
          0                 2           2             2   13     1       0.4297907467E-02       2   13    1         0.2452048949E+00      0.6779769403E+00
          0                 3           2             1    2     1       0.1062548932E-02       4    6    1         0.5470370008E-01      0.1712545342E+00
          0                 4           2             1    2     1       0.4770927000E-03       1    2    1         0.1240072942E-01      0.6767583018E-01
          0                 5           2             1    2     1       0.2141901110E-03       1    2    1         0.5567756552E-02      0.2978527326E-01
          0                 6           1             1    2     1       0.9615543497E-04       1    2    1         0.2499590075E-02      0.1330066860E-01
          0                 7           1             1    2     1       0.4316578283E-04       1    2    1         0.1122121984E-02      0.5952645764E-02
          0                 8           1             1    2     1       0.1937769173E-04       1    2    1         0.5037379002E-03      0.2665486978E-02
          0                 9           1             1    2     1       0.8698875843E-05       1    2    1         0.2261343605E-03      0.1194799615E-02

    ------------------------------------------------
       NWT REQUIRED            9 OUTER ITERATIONS 
       AND A TOTAL OF         14 INNER ITERATIONS.
    ------------------------------------------------

 NO OUTPUT CONTROL FOR STRESS PERIOD    8   TIME STEP    7
 
 SOLVING FOR HEAD 
                                                   Max.-Head-Change                         Max.-Flux-Residual
  Residual-Control   Outer-Iter.   Inner-Iter.     Column Row Layer    Maximum-Head-Change  Column Row Layer    Maximum-Flux-Residual          L2-NORM 
          0                 1           2             7   13     1      -0.3371420401E-01       7   13    1        -0.1806801936E+01      0.3971503133E+01
          0                 2           2             4    6     1      -0.7178751193E-01       4    6    1        -0.3959289161E+01      0.4014658035E+01
          0                 3           2             4    6     1       0.7450468966E-01       4    6    1         0.4144920985E+01      0.4154678954E+01
          0                 4           2             4    6     1      -0.7275452150E-01       4    6    1        -0.4085101098E+01      0.4091561902E+01
          0                 5           2             4    6     1       0.7130642570E-01       4    6    1         0.4040249860E+01      0.4046103643E+01
          0                 6           2             4    6     1      -0.3140736324E-03       4    6    1        -0.1858035400E-01      0.3473086522E-01
          0                 7           1             3    6     1       0.1167136329E-03       4    6    1        -0.3527146579E-02      0.8633031361E-02
          0                 8           1             3    6     1       0.5214554495E-04       3    6    1         0.1412143104E-02      0.3170249993E-02
          0                 9           1             3    6     1       0.2333192807E-04       3    6    1         0.6311043954E-03      0.1358925637E-02
          0                10           1             3    6     1       0.1044631190E-04       3    6    1         0.2824134821E-03      0.6039511787E-03
          0                11           1             3    6     1       0.4678432785E-05       3    6    1         0.1264491592E-03      0.2702538070E-03

    ------------------------------------------------
       NWT REQUIRED           11 OUTER ITERATIONS 
       AND A TOTAL OF         17 INNER ITERATIONS.
    ------------------------------------------------

 NO OUTPUT CONTROL FOR STRESS PERIOD    8   TIME STEP    8
 
 SOLVING FOR HEAD 
                                                   Max.-Head-Change                         Max.-Flux-Residual
  Residual-Control   Outer-Iter.   Inner-Iter.     Column Row Layer    Maximum-Head-Change  Column Row Layer    Maximum-Flux-Residual          L2-NORM 
          0                 1           2             7   13     1      -0.3269210597E-01       7   13    1        -0.1751681343E+01      0.3820667856E+01
          0                 2           2             7   13     1       0.3239640716E-02       7   13    1         0.1751318715E+00      0.5374058834E+00
          0                 3           2             1    2     1       0.1062238636E-02       1    2    1         0.2760409436E-01      0.1568090992E+00
          0                 4           2             1    2     1       0.4769526828E-03       1    2    1         0.1239710448E-01      0.6646186663E-01
          0                 5           2             1    2     1       0.2141269555E-03       1    2    1         0.5566121080E-02      0.2956256183E-01
          0                 6           1             1    2     1       0.9612695332E-04       1    2    1         0.2498852429E-02      0.1322240184E-01
          0                 7           1             1    2     1       0.4315293862E-04       1    2    1         0.1121789324E-02      0.5918833218E-02
          0                 8           1             1    2     1       0.1937190016E-04       1    2    1         0.5035878962E-03      0.2649960544E-02
          0                 9           1             1    2     1       0.8696264434E-05       1    2    1         0.2260667233E-03      0.1186528515E-02

    ------------------------------------------------
       NWT REQUIRED            9 OUTER ITERATIONS 
       AND A TOTAL OF         14 INNER ITERATIONS.
    ------------------------------------------------

 NO OUTPUT CONTROL FOR STRESS PERIOD    8   TIME STEP    9
 
 SOLVING FOR HEAD 
                                                   Max.-Head-Change                         Max.-Flux-Residual
  Residual-Control   Outer-Iter.   Inner-Iter.     Column Row Layer    Maximum-Head-Change  Column Row Layer    Maximum-Flux-Residual          L2-NORM 
          0                 1           2             7   13     1      -0.3170926265E-01       7   13    1        -0.1698658175E+01      0.3682096958E+01
          0                 2           2             7   13     1       0.3141218601E-02       7   13    1         0.1698301249E+00      0.5275569097E+00
          0                 3           2             1    2     1       0.1062091294E-02       1    2    1         0.2760028321E-01      0.1561647371E+00
          0                 4           2             1    2     1       0.4768861796E-03       1    2    1         0.1239538313E-01      0.6627316408E-01
          0                 5           2             1    2     1       0.2140969519E-03       1    2    1         0.5565344258E-02      0.2948020050E-01
          0                 6           1             1    2     1       0.9611341931E-04       1    2    1         0.2498501982E-02      0.1318596588E-01
          0                 7           1             1    2     1       0.4314683466E-04       1    2    1         0.1121631252E-02      0.5902700127E-02
          0                 8           1             1    2     1       0.1936914669E-04       1    2    1         0.5035165942E-03      0.2642811720E-02
          0                 9           1             1    2     1       0.8695022632E-05       1    2    1         0.2260345666E-03      0.1183358509E-02

    ------------------------------------------------
       NWT REQUIRED            9 OUTER ITERATIONS 
       AND A TOTAL OF         14 INNER ITERATIONS.
    ------------------------------------------------

 OUTPUT CONTROL FOR STRESS PERIOD    8   TIME STEP   10
    PRINT BUDGET
    SAVE BUDGET
 UBUDSV SAVING "         STORAGE" ON UNIT102 AT TIME STEP    10, STRESS PERIOD    8
 UBUDSV SAVING "   CONSTANT HEAD" ON UNIT102 AT TIME STEP    10, STRESS PERIOD    8
 UBUDSV SAVING "FLOW RIGHT FACE " ON UNIT102 AT TIME STEP    10, STRESS PERIOD    8
 UBUDSV SAVING "FLOW FRONT FACE " ON UNIT102 AT TIME STEP    10, STRESS PERIOD    8

  HEAD DEP BOUNDS   PERIOD    8   STEP    10
 BOUNDARY      1   LAYER   1   ROW    13   COL     1   RATE   -0.285418    
 BOUNDARY      2   LAYER   1   ROW    14   COL     9   RATE    0.274235    



 STREAM LISTING     PERIOD      8   STEP       10

 LAYER ROW COL. STREAM  RCH.  FLOW INTO     FLOW TO   FLOW OUT OF   OVRLND.     DIRECT     STREAM       STREAM     STREAM     STREAM   STREAMBED  STREAMBED
                SEG.NO.  NO.  STRM. RCH.    AQUIFER    STRM. RCH.    RUNOFF     PRECIP       ET          HEAD       DEPTH      WIDTH   CONDCTNC.   GRADIENT

   1    1    1     1     1    6.3000E+01  3.8236E-01   6.2618E+01  0.000E+00  0.000E+00  0.000E+00  1.09461E+03  1.562E+00  1.863E+01  8.382E-02  1.521E+00
   1    2    2     1     2    6.2618E+01  5.9218E-01   6.2025E+01  0.000E+00  0.000E+00  0.000E+00  1.08961E+03  1.556E+00  1.857E+01  1.300E-01  1.519E+00
   1    3    3     1     3    6.2025E+01  5.0506E-01   6.1520E+01  0.000E+00  0.000E+00  0.000E+00  1.08397E+03  1.549E+00  1.850E+01  1.110E-01  1.516E+00
   1    3    4     1     4    6.1520E+01  4.6510E-01   6.1055E+01  0.000E+00  0.000E+00  0.000E+00  1.07895E+03  1.543E+00  1.845E+01  1.024E-01  1.514E+00
   1    4    5     2     1    5.9055E+01  3.9145E-01   5.8664E+01  0.000E+00  0.000E+00  0.000E+00  1.07395E+03  2.019E+00  1.200E+01  7.800E-02  1.673E+00
   1    5    6     2     2    5.8664E+01  3.0068E-01   5.8363E+01  0.000E+00  0.000E+00  0.000E+00  1.06852E+03  2.011E+00  1.200E+01  6.000E-02  1.670E+00
   1    6    6     2     3    5.8363E+01  3.0031E-01   5.8063E+01  0.000E+00  0.000E+00  0.000E+00  1.06380E+03  2.005E+00  1.200E+01  6.000E-02  1.668E+00
   1    7    6     2     4    5.8063E+01  2.9994E-01   5.7763E+01  0.000E+00  0.000E+00  0.000E+00  1.05907E+03  1.999E+00  1.200E+01  6.000E-02  1.666E+00
   1    8    6     2     5    5.7763E+01  2.9957E-01   5.7463E+01  0.000E+00  0.000E+00  0.000E+00  1.05435E+03  1.993E+00  1.200E+01  6.000E-02  1.664E+00
   1    3    5     3     1    2.0000E+00  2.8252E-01   1.7175E+00  0.000E+00  0.000E+00  0.000E+00  1.07555E+03  1.909E+00  9.636E+00  7.227E-02  1.955E+00
   1    3    6     3     2    1.7175E+00  2.4905E-01   1.4684E+00  0.000E+00  0.000E+00  0.000E+00  1.07264E+03  1.727E+00  8.909E+00  6.682E-02  1.864E+00
   1    3    7     3     3    1.4684E+00  1.9718E-01   1.2712E+00  0.000E+00  0.000E+00  0.000E+00  1.06987E+03  1.555E+00  8.218E+00  5.547E-02  1.777E+00
   1    4    8     3     4    1.2712E+00  2.2567E-01   1.0456E+00  0.000E+00  0.000E+00  0.000E+00  1.06682E+03  1.364E+00  7.455E+00  6.709E-02  1.682E+00
   1    5    8     3     5    1.0456E+00  1.5790E-01   8.8768E-01  0.000E+00  0.000E+00  0.000E+00  1.06362E+03  1.164E+00  6.655E+00  4.991E-02  1.582E+00
   1    6    8     3     6    8.8768E-01  5.5980E-02   8.3170E-01  0.000E+00  0.000E+00  0.000E+00  1.06158E+03  1.036E+00  6.145E+00  1.844E-02  1.518E+00
   1    5   10     4     1    1.0000E+01  9.0919E-02   9.9091E+00  0.000E+00  0.000E+00  0.000E+00  1.07836E+03  6.368E-01  1.000E+01  2.500E-02  1.212E+00
   1    5    9     4     2    9.9091E+00  1.8158E-01   9.7275E+00  0.000E+00  0.000E+00  0.000E+00  1.07154E+03  6.315E-01  1.000E+01  5.000E-02  1.211E+00
   1    6    8     4     3    9.7275E+00  1.2689E-01   9.6006E+00  0.000E+00  0.000E+00  0.000E+00  1.06381E+03  6.256E-01  1.000E+01  3.500E-02  1.209E+00
   1    6    8     5     1    1.0432E+01  2.2686E-01   1.0205E+01  0.000E+00  0.000E+00  0.000E+00  1.05868E+03  6.790E-01  1.542E+01  6.166E-02  1.226E+00
   1    7    7     5     2    1.0205E+01  2.7894E-01   9.9265E+00  0.000E+00  0.000E+00  0.000E+00  1.05417E+03  6.732E-01  1.519E+01  7.594E-02  1.224E+00
   1    8    7     5     3    9.9265E+00  1.9221E-01   9.7343E+00  0.000E+00  0.000E+00  0.000E+00  1.04992E+03  6.676E-01  1.497E+01  5.241E-02  1.223E+00
   1    8    6     5     4    9.7343E+00  1.3577E-01   9.5985E+00  0.000E+00  0.000E+00  0.000E+00  1.04691E+03  6.637E-01  1.482E+01  3.706E-02  1.221E+00
   1    9    6     6     1    6.2062E+01  3.0623E-01   6.1756E+01  0.000E+00  0.000E+00  0.000E+00  1.04483E+03  2.104E+00  1.200E+01  6.000E-02  1.701E+00
   1   10    7     6     2    6.1756E+01  3.0586E-01   6.1450E+01  0.000E+00  0.000E+00  0.000E+00  1.04028E+03  2.098E+00  1.200E+01  6.000E-02  1.699E+00
   1   11    7     6     3    6.1450E+01  3.0548E-01   6.1144E+01  0.000E+00  0.000E+00  0.000E+00  1.03573E+03  2.091E+00  1.200E+01  6.000E-02  1.697E+00
   1   12    7     6     4    6.1144E+01  3.0511E-01   6.0839E+01  0.000E+00  0.000E+00  0.000E+00  1.03118E+03  2.085E+00  1.200E+01  6.000E-02  1.695E+00
   1   13    7     6     5    6.0839E+01  1.5245E-02   6.0824E+01  0.000E+00  0.000E+00  0.000E+00  1.02799E+03  2.082E+00  1.200E+01  2.400E-02  2.117E-01
   1   14    9     7     1    1.5000E+02  1.1665E+00   1.4883E+02  0.000E+00  0.000E+00  0.000E+00  1.03987E+03  2.288E+00  5.530E+01  5.593E-01  6.952E-01
   1   13    8     7     2    1.4883E+02  1.5992E+00   1.4723E+02  0.000E+00  0.000E+00  0.000E+00  1.03478E+03  2.281E+00  5.526E+01  6.149E-01  8.670E-01
   1   13    7     7     3    1.4723E+02  1.3052E+00   1.4593E+02  0.000E+00  0.000E+00  0.000E+00  1.02969E+03  2.273E+00  5.523E+01  5.586E-01  7.789E-01
   1   13    6     8     1    2.0675E+02  9.5831E-01   2.0579E+02  0.000E+00  0.000E+00  0.000E+00  1.02505E+03  3.174E+00  4.603E+01  4.690E-01  6.811E-01
   1   13    5     8     2    2.0579E+02  2.2611E-01   2.0557E+02  0.000E+00  0.000E+00  0.000E+00  1.01880E+03  3.171E+00  4.598E+01  4.685E-01  1.609E-01
   1   13    4     8     3    2.0557E+02 -2.0162E+00   2.0758E+02  0.000E+00  0.000E+00  0.000E+00  1.01255E+03  3.176E+00  4.605E+01  4.693E+00 -1.432E-01
   1   13    3     8     4    2.0758E+02 -3.0928E+00   2.1068E+02  0.000E+00  0.000E+00  0.000E+00  1.00632E+03  3.191E+00  4.627E+01  4.715E+00 -2.187E-01
   1   13    2     8     5    2.1068E+02 -1.7861E+00   2.1246E+02  0.000E+00  0.000E+00  0.000E+00  1.00008E+03  3.205E+00  4.647E+01  4.735E+00 -1.257E-01
   1   13    1     8     6    2.1246E+02 -1.2047E+00   2.1367E+02  0.000E+00  0.000E+00  0.000E+00  9.95088E+02  3.213E+00  4.659E+01  2.849E+00 -1.410E-01
   1    6    8     9     1    5.0000E+00  0.0000E+00   5.0000E+00  0.000E+00  0.000E+00  0.000E+00  1.07886E+03  3.555E-01  4.000E+00  0.000E+00  1.119E+00



 UBDSV3 SAVING "     NETRECHARGE" ON UNIT 100 AT TIME STEP    10, STRESS PERIOD   8
 UBDSV3 SAVING "    NETDISCHARGE" ON UNIT 101 AT TIME STEP    10, STRESS PERIOD   8
 UBDSV3 SAVING "           GW ET" ON UNIT  61 AT TIME STEP    10, STRESS PERIOD   8
 UBDSV3 SAVING "    UZF RECHARGE" ON UNIT  61 AT TIME STEP    10, STRESS PERIOD   8
 UBDSV3 SAVING " SURFACE LEAKAGE" ON UNIT  61 AT TIME STEP    10, STRESS PERIOD   8
 UBDSV3 SAVING "       HORT+DUNN" ON UNIT  61 AT TIME STEP    10, STRESS PERIOD   8
 UBDSV3 SAVING "  STORAGE CHANGE" ON UNIT  61 AT TIME STEP    10, STRESS PERIOD   8


UNSATURATED ZONE PACKAGE VOLUMETRIC BUDGET FOR  TIME STEP    10 STRESS PERIOD    8
  ------------------------------------------------------------------------------



     CUMULATIVE VOLUMES      L**3       RATES FOR THIS TIME STEP      L**3/T
     ------------------                 ------------------------

           IN:                                      IN:
           ---                                      ---
        INFILTRATION =     1956088.9121          INFILTRATION =           5.0001

          OUT:                                     OUT:
          ----                                     ----
              UZF ET =   525660674.2933                UZF ET =           5.0001
        UZF RECHARGE =   436376874.4408          UZF RECHARGE =          24.0741

            IN - OUT =  -960081459.8220              IN - OUT =         -24.0741

          STORAGE:                                 STORAGE:
          --------                                 --------
      STORAGE CHANGE =  -960056030.8077        STORAGE CHANGE =         -24.0741

 PERCENT DISCREPANCY IS DIFFERENCE BETWEEN IN-OUT MINUS CHANGE IN STORAGE
 DIVIDED BY THE AVERAGE OF IN AND OUT TIMES 100

 PERCENT DISCREPANCY =          -0.00     PERCENT DISCREPANCY =           0.00






1
  VOLUMETRIC BUDGET FOR ENTIRE MODEL AT END OF TIME STEP   10, STRESS PERIOD   8
  ------------------------------------------------------------------------------

     CUMULATIVE VOLUMES      L**3       RATES FOR THIS TIME STEP      L**3/T
     ------------------                 ------------------------

           IN:                                      IN:
           ---                                      ---
             STORAGE     =    12706648.0000               STORAGE     =           8.4077
       CONSTANT HEAD     =           0.0000         CONSTANT HEAD     =           0.0000
               WELLS     =           0.0000                 WELLS     =           0.0000
     HEAD DEP BOUNDS     =     4651265.0000       HEAD DEP BOUNDS     =           0.2742
      STREAM LEAKAGE     =   196903136.0000        STREAM LEAKAGE     =          12.4313
        UZF RECHARGE     =   436376832.0000          UZF RECHARGE     =          24.0741
               GW ET     =           0.0000                 GW ET     =           0.0000
     SURFACE LEAKAGE     =           0.0000       SURFACE LEAKAGE     =           0.0000
    SUPPLEMENTARY WELLS  =           0.0000      SUPPLEMENTARY WELLS  =           0.0000

                TOTAL IN =   650637888.0000                  TOTAL IN =          45.1874

          OUT:                                     OUT:
          ----                                     ----
             STORAGE     =   443476352.0000               STORAGE     =          22.7984
       CONSTANT HEAD     =           0.0000         CONSTANT HEAD     =           0.0000
               WELLS     =           0.0000                 WELLS     =           0.0000
     HEAD DEP BOUNDS     =     4888096.0000       HEAD DEP BOUNDS     =           0.2854
      STREAM LEAKAGE     =   179280112.0000        STREAM LEAKAGE     =           8.0997
        UZF RECHARGE     =           0.0000          UZF RECHARGE     =           0.0000
               GW ET     =    22884506.0000                 GW ET     =          14.0000
     SURFACE LEAKAGE     =           0.0000       SURFACE LEAKAGE     =           0.0000
    SUPPLEMENTARY WELLS  =       32303.0273      SUPPLEMENTARY WELLS  =           0.0000

               TOTAL OUT =   650561344.0000                 TOTAL OUT =          45.1835

                IN - OUT =       76544.0000                  IN - OUT =       3.8414E-03

     PERCENT DISCREPANCY =           0.01         PERCENT DISCREPANCY =           0.01






         TIME SUMMARY AT END OF TIME STEP   10 IN STRESS PERIOD    8
                    SECONDS     MINUTES      HOURS       DAYS        YEARS
                    -----------------------------------------------------------
   TIME STEP LENGTH  87600.      1460.0      24.333      1.0139     2.77588E-03
 STRESS PERIOD TIME 8.76000E+05  14600.      243.33      10.139     2.77588E-02
         TOTAL TIME 1.67304E+07 2.78840E+05  4647.3      193.64     0.53015    
1
 
 SOLVING FOR HEAD 
                                                   Max.-Head-Change                         Max.-Flux-Residual
  Residual-Control   Outer-Iter.   Inner-Iter.     Column Row Layer    Maximum-Head-Change  Column Row Layer    Maximum-Flux-Residual          L2-NORM 
          0                 1           2             7   13     1      -0.3076320403E-01       7   13    1        -0.1647647450E+01      0.3555043918E+01
          0                 2           2             7   13     1       0.3046575688E-02       7   13    1         0.1647296231E+00      0.5187621114E+00
          0                 3           2             1    2     1       0.1061932975E-02       1    2    1         0.2759618667E-01      0.1556439926E+00
          0                 4           2             1    2     1       0.4768147484E-03       1    2    1         0.1239353365E-01      0.6612798810E-01
          0                 5           2             1    2     1       0.2140647356E-03       1    2    1         0.5564509918E-02      0.2941630395E-01
          0                 6           1             1    2     1       0.9609889186E-04       1    2    1         0.2498125706E-02      0.1315739882E-01
          0                 7           1             1    2     1       0.4314028376E-04       1    2    1         0.1121461577E-02      0.5890132678E-02
          0                 8           1             1    2     1       0.1936619363E-04       1    2    1         0.5034400956E-03      0.2637601164E-02
          0                 9           1             1    2     1       0.8693691041E-05       1    2    1         0.2260000727E-03      0.1180806050E-02

    ------------------------------------------------
       NWT REQUIRED            9 OUTER ITERATIONS 
       AND A TOTAL OF         14 INNER ITERATIONS.
    ------------------------------------------------

 NO OUTPUT CONTROL FOR STRESS PERIOD    8   TIME STEP   11
 
 SOLVING FOR HEAD 
                                                   Max.-Head-Change                         Max.-Flux-Residual
  Residual-Control   Outer-Iter.   Inner-Iter.     Column Row Layer    Maximum-Head-Change  Column Row Layer    Maximum-Flux-Residual          L2-NORM 
          0                 1           2             7   13     1      -0.2985246130E-01       7   13    1        -0.1598546667E+01      0.3438273591E+01
          0                 2           2             7   13     1       0.2955484704E-02       7   13    1         0.1598201224E+00      0.5107858974E+00
          0                 3           2             1    2     1       0.1061772919E-02       1    2    1         0.2759204499E-01      0.1551613641E+00
          0                 4           2             1    2     1       0.4767425378E-03       1    2    1         0.1239166393E-01      0.6599021321E-01
          0                 5           2             1    2     1       0.2140321699E-03       1    2    1         0.5563666494E-02      0.2935555261E-01
          0                 6           1             1    2     1       0.9608420734E-04       1    2    1         0.2497745358E-02      0.1313022982E-01
          0                 7           1             1    2     1       0.4313366332E-04       1    2    1         0.1121290083E-02      0.5877775451E-02
          0                 8           1             1    2     1       0.1936320830E-04       1    2    1         0.5033627714E-03      0.2631665209E-02
          0                 9           1             1    2     1       0.8692345444E-05       1    2    1         0.2259652127E-03      0.1178372743E-02

    ------------------------------------------------
       NWT REQUIRED            9 OUTER ITERATIONS 
       AND A TOTAL OF         14 INNER ITERATIONS.
    ------------------------------------------------

 NO OUTPUT CONTROL FOR STRESS PERIOD    8   TIME STEP   12
 
 SOLVING FOR HEAD 
                                                   Max.-Head-Change                         Max.-Flux-Residual
  Residual-Control   Outer-Iter.   Inner-Iter.     Column Row Layer    Maximum-Head-Change  Column Row Layer    Maximum-Flux-Residual          L2-NORM 
          0                 1           2             7   13     1      -0.2897559692E-01       7   13    1        -0.1551275111E+01      0.3330835327E+01
          0                 2           2             7   13     1       0.2867773335E-02       7   13    1         0.1550935943E+00      0.5035545019E+00
          0                 3           2             1    2     1       0.1061611177E-02       1    2    1         0.2758785937E-01      0.1547146303E+00
          0                 4           2             1    2     1       0.4766695714E-03       1    2    1         0.1238977453E-01      0.6585965575E-01
          0                 5           2             1    2     1       0.2139992651E-03       1    2    1         0.5562814240E-02      0.2929793419E-01
          0                 6           1             1    2     1       0.9606937100E-04       1    2    1         0.2497361043E-02      0.1310446020E-01
          0                 7           1             1    2     1       0.4312697410E-04       1    2    1         0.1121116798E-02      0.5866248914E-02
          0                 8           1             1    2     1       0.1936019221E-04       1    2    1         0.5032846411E-03      0.2626509026E-02
          0                 9           1             1    2     1       0.8690985590E-05       1    2    1         0.2259299902E-03      0.1176066264E-02

    ------------------------------------------------
       NWT REQUIRED            9 OUTER ITERATIONS 
       AND A TOTAL OF         14 INNER ITERATIONS.
    ------------------------------------------------

 NO OUTPUT CONTROL FOR STRESS PERIOD    8   TIME STEP   13
 
 SOLVING FOR HEAD 
                                                   Max.-Head-Change                         Max.-Flux-Residual
  Residual-Control   Outer-Iter.   Inner-Iter.     Column Row Layer    Maximum-Head-Change  Column Row Layer    Maximum-Flux-Residual          L2-NORM 
          0                 1           2             7   13     1      -0.2813116921E-01       7   13    1        -0.1505768244E+01      0.3231709359E+01
          0                 2           2             7   13     1       0.2783462804E-02       7   13    1         0.1505428752E+00      0.4969435789E+00
          0                 3           2             1    2     1       0.1061447720E-02       1    2    1         0.2758362920E-01      0.1542974632E+00
          0                 4           2             1    2     1       0.4765958344E-03       1    2    1         0.1238786511E-01      0.6573493084E-01
          0                 5           2             1    2     1       0.2139660140E-03       1    2    1         0.5561953001E-02      0.2924278511E-01
          0                 6           1             1    2     1       0.9605437910E-04       1    2    1         0.2496972700E-02      0.1307978936E-01
          0                 7           1             1    2     1       0.4312021535E-04       1    2    1         0.1120941715E-02      0.5855212703E-02
          0                 8           1             1    2     1       0.1935714561E-04       1    2    1         0.5032057087E-03      0.2621572683E-02
          0                 9           1             1    2     1       0.8689611730E-05       1    2    1         0.2258944016E-03      0.1173856926E-02

    ------------------------------------------------
       NWT REQUIRED            9 OUTER ITERATIONS 
       AND A TOTAL OF         14 INNER ITERATIONS.
    ------------------------------------------------

 NO OUTPUT CONTROL FOR STRESS PERIOD    8   TIME STEP   14
 
 SOLVING FOR HEAD 
                                                   Max.-Head-Change                         Max.-Flux-Residual
  Residual-Control   Outer-Iter.   Inner-Iter.     Column Row Layer    Maximum-Head-Change  Column Row Layer    Maximum-Flux-Residual          L2-NORM 
          0                 1           2             7   13     1      -0.2731778406E-01       7   13    1        -0.1461928979E+01      0.3140158629E+01
          0                 2           2             7   13     1       0.2702628082E-02       7   13    1         0.1461600015E+00      0.4908493052E+00
          0                 3           2             1    2     1       0.1061282570E-02       1    2    1         0.2757935501E-01      0.1538877986E+00
          0                 4           2             1    2     1       0.4765213381E-03       1    2    1         0.1238593594E-01      0.6560794130E-01
          0                 5           2             1    2     1       0.2139324229E-03       1    2    1         0.5561082905E-02      0.2918664763E-01
          0                 6           1             1    2     1       0.9603923463E-04       1    2    1         0.2496580379E-02      0.1305469994E-01
          0                 7           1             1    2     1       0.4311338781E-04       1    2    1         0.1120764839E-02      0.5843998167E-02
          0                 8           1             1    2     1       0.1935406749E-04       1    2    1         0.5031259719E-03      0.2616558697E-02
          0                 9           1             1    2     1       0.8688224614E-05       1    2    1         0.2258584621E-03      0.1171615823E-02

    ------------------------------------------------
       NWT REQUIRED            9 OUTER ITERATIONS 
       AND A TOTAL OF         14 INNER ITERATIONS.
    ------------------------------------------------

 OUTPUT CONTROL FOR STRESS PERIOD    8   TIME STEP   15
    PRINT BUDGET
    PRINT HEAD FOR ALL LAYERS
    SAVE HEAD FOR ALL LAYERS
    SAVE BUDGET
 UBUDSV SAVING "         STORAGE" ON UNIT102 AT TIME STEP    15, STRESS PERIOD    8
 UBUDSV SAVING "   CONSTANT HEAD" ON UNIT102 AT TIME STEP    15, STRESS PERIOD    8
 UBUDSV SAVING "FLOW RIGHT FACE " ON UNIT102 AT TIME STEP    15, STRESS PERIOD    8
 UBUDSV SAVING "FLOW FRONT FACE " ON UNIT102 AT TIME STEP    15, STRESS PERIOD    8

  HEAD DEP BOUNDS   PERIOD    8   STEP    15
 BOUNDARY      1   LAYER   1   ROW    13   COL     1   RATE   -0.282299    
 BOUNDARY      2   LAYER   1   ROW    14   COL     9   RATE    0.274172    



 STREAM LISTING     PERIOD      8   STEP       15

 LAYER ROW COL. STREAM  RCH.  FLOW INTO     FLOW TO   FLOW OUT OF   OVRLND.     DIRECT     STREAM       STREAM     STREAM     STREAM   STREAMBED  STREAMBED
                SEG.NO.  NO.  STRM. RCH.    AQUIFER    STRM. RCH.    RUNOFF     PRECIP       ET          HEAD       DEPTH      WIDTH   CONDCTNC.   GRADIENT

   1    1    1     1     1    6.3000E+01  3.8236E-01   6.2618E+01  0.000E+00  0.000E+00  0.000E+00  1.09461E+03  1.562E+00  1.863E+01  8.382E-02  1.521E+00
   1    2    2     1     2    6.2618E+01  5.9218E-01   6.2025E+01  0.000E+00  0.000E+00  0.000E+00  1.08961E+03  1.556E+00  1.857E+01  1.300E-01  1.519E+00
   1    3    3     1     3    6.2025E+01  5.0506E-01   6.1520E+01  0.000E+00  0.000E+00  0.000E+00  1.08397E+03  1.549E+00  1.850E+01  1.110E-01  1.516E+00
   1    3    4     1     4    6.1520E+01  4.6510E-01   6.1055E+01  0.000E+00  0.000E+00  0.000E+00  1.07895E+03  1.543E+00  1.845E+01  1.024E-01  1.514E+00
   1    4    5     2     1    5.9055E+01  3.9145E-01   5.8664E+01  0.000E+00  0.000E+00  0.000E+00  1.07395E+03  2.019E+00  1.200E+01  7.800E-02  1.673E+00
   1    5    6     2     2    5.8664E+01  3.0068E-01   5.8363E+01  0.000E+00  0.000E+00  0.000E+00  1.06852E+03  2.011E+00  1.200E+01  6.000E-02  1.670E+00
   1    6    6     2     3    5.8363E+01  3.0031E-01   5.8063E+01  0.000E+00  0.000E+00  0.000E+00  1.06380E+03  2.005E+00  1.200E+01  6.000E-02  1.668E+00
   1    7    6     2     4    5.8063E+01  2.9994E-01   5.7763E+01  0.000E+00  0.000E+00  0.000E+00  1.05907E+03  1.999E+00  1.200E+01  6.000E-02  1.666E+00
   1    8    6     2     5    5.7763E+01  2.9957E-01   5.7463E+01  0.000E+00  0.000E+00  0.000E+00  1.05435E+03  1.993E+00  1.200E+01  6.000E-02  1.664E+00
   1    3    5     3     1    2.0000E+00  2.8252E-01   1.7175E+00  0.000E+00  0.000E+00  0.000E+00  1.07555E+03  1.909E+00  9.636E+00  7.227E-02  1.955E+00
   1    3    6     3     2    1.7175E+00  2.4905E-01   1.4684E+00  0.000E+00  0.000E+00  0.000E+00  1.07264E+03  1.727E+00  8.909E+00  6.682E-02  1.864E+00
   1    3    7     3     3    1.4684E+00  1.9718E-01   1.2712E+00  0.000E+00  0.000E+00  0.000E+00  1.06987E+03  1.555E+00  8.218E+00  5.547E-02  1.777E+00
   1    4    8     3     4    1.2712E+00  2.2567E-01   1.0456E+00  0.000E+00  0.000E+00  0.000E+00  1.06682E+03  1.364E+00  7.455E+00  6.709E-02  1.682E+00
   1    5    8     3     5    1.0456E+00  1.5790E-01   8.8768E-01  0.000E+00  0.000E+00  0.000E+00  1.06362E+03  1.164E+00  6.655E+00  4.991E-02  1.582E+00
   1    6    8     3     6    8.8768E-01  5.5980E-02   8.3170E-01  0.000E+00  0.000E+00  0.000E+00  1.06158E+03  1.036E+00  6.145E+00  1.844E-02  1.518E+00
   1    5   10     4     1    1.0000E+01  9.0919E-02   9.9091E+00  0.000E+00  0.000E+00  0.000E+00  1.07836E+03  6.368E-01  1.000E+01  2.500E-02  1.212E+00
   1    5    9     4     2    9.9091E+00  1.8158E-01   9.7275E+00  0.000E+00  0.000E+00  0.000E+00  1.07154E+03  6.315E-01  1.000E+01  5.000E-02  1.211E+00
   1    6    8     4     3    9.7275E+00  1.2689E-01   9.6006E+00  0.000E+00  0.000E+00  0.000E+00  1.06381E+03  6.256E-01  1.000E+01  3.500E-02  1.209E+00
   1    6    8     5     1    1.0432E+01  2.2686E-01   1.0205E+01  0.000E+00  0.000E+00  0.000E+00  1.05868E+03  6.790E-01  1.542E+01  6.166E-02  1.226E+00
   1    7    7     5     2    1.0205E+01  2.7894E-01   9.9265E+00  0.000E+00  0.000E+00  0.000E+00  1.05417E+03  6.732E-01  1.519E+01  7.594E-02  1.224E+00
   1    8    7     5     3    9.9265E+00  1.9221E-01   9.7343E+00  0.000E+00  0.000E+00  0.000E+00  1.04992E+03  6.676E-01  1.497E+01  5.241E-02  1.223E+00
   1    8    6     5     4    9.7343E+00  1.3577E-01   9.5985E+00  0.000E+00  0.000E+00  0.000E+00  1.04691E+03  6.637E-01  1.482E+01  3.706E-02  1.221E+00
   1    9    6     6     1    6.2062E+01  3.0623E-01   6.1756E+01  0.000E+00  0.000E+00  0.000E+00  1.04483E+03  2.104E+00  1.200E+01  6.000E-02  1.701E+00
   1   10    7     6     2    6.1756E+01  3.0586E-01   6.1450E+01  0.000E+00  0.000E+00  0.000E+00  1.04028E+03  2.098E+00  1.200E+01  6.000E-02  1.699E+00
   1   11    7     6     3    6.1450E+01  3.0548E-01   6.1144E+01  0.000E+00  0.000E+00  0.000E+00  1.03573E+03  2.091E+00  1.200E+01  6.000E-02  1.697E+00
   1   12    7     6     4    6.1144E+01  3.0511E-01   6.0839E+01  0.000E+00  0.000E+00  0.000E+00  1.03118E+03  2.085E+00  1.200E+01  6.000E-02  1.695E+00
   1   13    7     6     5    6.0839E+01  1.8409E-02   6.0821E+01  0.000E+00  0.000E+00  0.000E+00  1.02799E+03  2.082E+00  1.200E+01  2.400E-02  2.557E-01
   1   14    9     7     1    1.5000E+02  1.1656E+00   1.4883E+02  0.000E+00  0.000E+00  0.000E+00  1.03987E+03  2.288E+00  5.530E+01  5.593E-01  6.946E-01
   1   13    8     7     2    1.4883E+02  1.6036E+00   1.4723E+02  0.000E+00  0.000E+00  0.000E+00  1.03478E+03  2.281E+00  5.526E+01  6.149E-01  8.694E-01
   1   13    7     7     3    1.4723E+02  1.3787E+00   1.4585E+02  0.000E+00  0.000E+00  0.000E+00  1.02969E+03  2.273E+00  5.523E+01  5.586E-01  8.228E-01
   1   13    6     8     1    2.0667E+02  1.0154E+00   2.0566E+02  0.000E+00  0.000E+00  0.000E+00  1.02505E+03  3.174E+00  4.602E+01  4.689E-01  7.217E-01
   1   13    5     8     2    2.0566E+02  2.6851E-01   2.0539E+02  0.000E+00  0.000E+00  0.000E+00  1.01879E+03  3.170E+00  4.596E+01  4.684E-01  1.911E-01
   1   13    4     8     3    2.0539E+02 -1.7504E+00   2.0714E+02  0.000E+00  0.000E+00  0.000E+00  1.01255E+03  3.174E+00  4.603E+01  4.690E+00 -1.244E-01
   1   13    3     8     4    2.0714E+02 -2.8319E+00   2.0997E+02  0.000E+00  0.000E+00  0.000E+00  1.00631E+03  3.187E+00  4.622E+01  4.710E+00 -2.004E-01
   1   13    2     8     5    2.0997E+02 -1.4626E+00   2.1143E+02  0.000E+00  0.000E+00  0.000E+00  1.00007E+03  3.200E+00  4.640E+01  4.728E+00 -1.031E-01
   1   13    1     8     6    2.1143E+02 -9.8729E-01   2.1242E+02  0.000E+00  0.000E+00  0.000E+00  9.95082E+02  3.207E+00  4.650E+01  2.843E+00 -1.158E-01
   1    6    8     9     1    5.0000E+00  0.0000E+00   5.0000E+00  0.000E+00  0.000E+00  0.000E+00  1.07886E+03  3.555E-01  4.000E+00  0.000E+00  1.119E+00



 UBDSV3 SAVING "     NETRECHARGE" ON UNIT 100 AT TIME STEP    15, STRESS PERIOD   8
 UBDSV3 SAVING "    NETDISCHARGE" ON UNIT 101 AT TIME STEP    15, STRESS PERIOD   8
 UBDSV3 SAVING "           GW ET" ON UNIT  61 AT TIME STEP    15, STRESS PERIOD   8
 UBDSV3 SAVING "    UZF RECHARGE" ON UNIT  61 AT TIME STEP    15, STRESS PERIOD   8
 UBDSV3 SAVING " SURFACE LEAKAGE" ON UNIT  61 AT TIME STEP    15, STRESS PERIOD   8
 UBDSV3 SAVING "       HORT+DUNN" ON UNIT  61 AT TIME STEP    15, STRESS PERIOD   8
 UBDSV3 SAVING "  STORAGE CHANGE" ON UNIT  61 AT TIME STEP    15, STRESS PERIOD   8


UNSATURATED ZONE PACKAGE VOLUMETRIC BUDGET FOR  TIME STEP    15 STRESS PERIOD    8
  ------------------------------------------------------------------------------



     CUMULATIVE VOLUMES      L**3       RATES FOR THIS TIME STEP      L**3/T
     ------------------                 ------------------------

           IN:                                      IN:
           ---                                      ---
        INFILTRATION =     4146132.5058          INFILTRATION =           5.0001

          OUT:                                     OUT:
          ----                                     ----
              UZF ET =   527850717.8871                UZF ET =           5.0001
        UZF RECHARGE =   446864137.5449          UZF RECHARGE =          23.8613

            IN - OUT =  -970568722.9261              IN - OUT =         -23.8613

          STORAGE:                                 STORAGE:
          --------                                 --------
      STORAGE CHANGE =  -970543293.9079        STORAGE CHANGE =         -23.8613

 PERCENT DISCREPANCY IS DIFFERENCE BETWEEN IN-OUT MINUS CHANGE IN STORAGE
 DIVIDED BY THE AVERAGE OF IN AND OUT TIMES 100

 PERCENT DISCREPANCY =          -0.00     PERCENT DISCREPANCY =           0.00






1
              HEAD IN LAYER   1 AT END OF TIME STEP    15 IN STRESS PERIOD    8
  -----------------------------------------------------------------------------

           1       2       3       4       5       6       7       8       9      10
 ...................................................................................
   1  1034.82 1033.07 6999.00 6999.00 6999.00 6999.00 6999.00 6999.00 6999.00 6999.00
   2  1034.12 1032.84 1031.69 6999.00 6999.00 1033.17 1033.36 1033.40 6999.00 6999.00
   3  6999.00 1031.83 1031.41 1031.05 1031.43 1032.06 1032.73 1032.86 6999.00 6999.00
   4  1031.15 1031.05 1030.62 1030.11 1030.10 1030.08 1030.78 1032.02 1031.89 6999.00
   5  1030.69 1030.23 1029.71 1029.26 1029.30 1029.51 1029.61 1030.08 1030.72 1031.15
   6  1030.11 1029.44 1028.85 1028.44 1028.52 1028.87 1029.11 1029.64 1030.51 1031.72
   7  1029.59 1028.44 1027.85 1027.50 1027.64 1028.09 1028.48 1029.00 1030.19 6999.00
   8  6999.00 1026.98 1026.59 1026.35 1026.55 1027.09 1027.51 1028.58 1029.67 6999.00
   9  6999.00 1024.77 1024.74 1024.80 1025.16 1025.85 1026.39 1027.64 1029.12 6999.00
  10  6999.00 1021.76 1022.18 1022.85 1023.61 1024.66 1025.66 1027.18 1029.13 1029.79
  11  6999.00 1016.99 1018.01 1020.29 1021.92 1023.70 1025.34 1027.55 1030.06 6999.00
  12  1003.18 1008.98 1012.75 1016.71 1019.99 1023.06 1025.62 1029.30 1032.62 6999.00
  13   995.43 1000.38 1006.91 1012.92 1018.22 1022.88 1027.22 1032.17 1035.20 6999.00
  14  6999.00 1007.26 1010.09 1014.70 1019.46 1023.91 1028.72 1033.96 1037.78 6999.00
  15  6999.00 6999.00 1014.15 1016.85 1020.30 1023.27 6999.00 6999.00 6999.00 6999.00

 HEAD WILL BE SAVED ON UNIT   62 AT END OF TIME STEP   15, STRESS PERIOD    8
1
  VOLUMETRIC BUDGET FOR ENTIRE MODEL AT END OF TIME STEP   15, STRESS PERIOD   8
  ------------------------------------------------------------------------------

     CUMULATIVE VOLUMES      L**3       RATES FOR THIS TIME STEP      L**3/T
     ------------------                 ------------------------

           IN:                                      IN:
           ---                                      ---
             STORAGE     =    16021913.0000               STORAGE     =           7.0613
       CONSTANT HEAD     =           0.0000         CONSTANT HEAD     =           0.0000
               WELLS     =           0.0000                 WELLS     =           0.0000
     HEAD DEP BOUNDS     =     4771363.5000       HEAD DEP BOUNDS     =           0.2742
      STREAM LEAKAGE     =   202396000.0000        STREAM LEAKAGE     =          12.6110
        UZF RECHARGE     =   446864096.0000          UZF RECHARGE     =          23.8613
               GW ET     =           0.0000                 GW ET     =           0.0000
     SURFACE LEAKAGE     =           0.0000       SURFACE LEAKAGE     =           0.0000
    SUPPLEMENTARY WELLS  =           0.0000      SUPPLEMENTARY WELLS  =           0.0000

                TOTAL IN =   670053376.0000                  TOTAL IN =          43.8077

          OUT:                                     OUT:
          ----                                     ----
             STORAGE     =   453380992.0000               STORAGE     =          22.4895
       CONSTANT HEAD     =           0.0000         CONSTANT HEAD     =           0.0000
               WELLS     =           0.0000                 WELLS     =           0.0000
     HEAD DEP BOUNDS     =     5012263.5000       HEAD DEP BOUNDS     =           0.2823
      STREAM LEAKAGE     =   182533136.0000        STREAM LEAKAGE     =           7.0322
        UZF RECHARGE     =           0.0000          UZF RECHARGE     =           0.0000
               GW ET     =    29016506.0000                 GW ET     =          14.0000
     SURFACE LEAKAGE     =           0.0000       SURFACE LEAKAGE     =           0.0000
    SUPPLEMENTARY WELLS  =       32303.0273      SUPPLEMENTARY WELLS  =           0.0000

               TOTAL OUT =   669975232.0000                 TOTAL OUT =          43.8040

                IN - OUT =       78144.0000                  IN - OUT =       3.7613E-03

     PERCENT DISCREPANCY =           0.01         PERCENT DISCREPANCY =           0.01






         TIME SUMMARY AT END OF TIME STEP   15 IN STRESS PERIOD    8
                    SECONDS     MINUTES      HOURS       DAYS        YEARS
                    -----------------------------------------------------------
   TIME STEP LENGTH  87600.      1460.0      24.333      1.0139     2.77588E-03
 STRESS PERIOD TIME 1.31400E+06  21900.      365.00      15.208     4.16381E-02
         TOTAL TIME 1.71684E+07 2.86140E+05  4769.0      198.71     0.54403    
1
 
 SOLVING FOR HEAD 
                                                   Max.-Head-Change                         Max.-Flux-Residual
  Residual-Control   Outer-Iter.   Inner-Iter.     Column Row Layer    Maximum-Head-Change  Column Row Layer    Maximum-Flux-Residual          L2-NORM 
          0                 1           2             7   13     1      -0.2653422324E-01       7   13    1        -0.1419675140E+01      0.3055613059E+01
          0                 2           2             7   13     1       0.2625077463E-02       7   13    1         0.1419350841E+00      0.4853205511E+00
          0                 3           2             1    2     1       0.1061115750E-02       1    2    1         0.2757503734E-01      0.1535204899E+00
          0                 4           2             1    2     1       0.4764460924E-03       1    2    1         0.1238398728E-01      0.6549402052E-01
          0                 5           2             1    2     1       0.2138984948E-03       1    2    1         0.5560204059E-02      0.2913619886E-01
          0                 6           1             1    2     1       0.9602393908E-04       1    2    1         0.2496184135E-02      0.1303212494E-01
          0                 7           1             1    2     1       0.4310649275E-04       1    2    1         0.1120586209E-02      0.5833897933E-02
          0                 8           1             1    2     1       0.1935095961E-04       1    2    1         0.5030454484E-03      0.2612041791E-02
          0                 9           1             1    2     1       0.8686823492E-05       1    2    1         0.2258221624E-03      0.1169596318E-02

    ------------------------------------------------
       NWT REQUIRED            9 OUTER ITERATIONS 
       AND A TOTAL OF         14 INNER ITERATIONS.
    ------------------------------------------------

 NO OUTPUT CONTROL FOR STRESS PERIOD    8   TIME STEP   16
 
 SOLVING FOR HEAD 
                                                   Max.-Head-Change                         Max.-Flux-Residual
  Residual-Control   Outer-Iter.   Inner-Iter.     Column Row Layer    Maximum-Head-Change  Column Row Layer    Maximum-Flux-Residual          L2-NORM 
          0                 1           2             7   13     1      -0.2577926958E-01       7   13    1        -0.1378970533E+01      0.2977222056E+01
          0                 2           2             7   13     1       0.2550581988E-02       7   13    1         0.1378648506E+00      0.4802948985E+00
          0                 3           2             1    2     1       0.1060956486E-02       1    2    1         0.2757091604E-01      0.1531707320E+00
          0                 4           2             1    2     1       0.4763742393E-03       1    2    1         0.1238212680E-01      0.6538248682E-01
          0                 5           2             1    2     1       0.2138660904E-03       1    2    1         0.5559364811E-02      0.2908671644E-01
          0                 6           1             1    2     1       0.9600932785E-04       1    2    1         0.2495805672E-02      0.1300996355E-01
          0                 7           1             1    2     1       0.4309990458E-04       1    2    1         0.1120415558E-02      0.5823972797E-02
          0                 8           1             1    2     1       0.1934798929E-04       1    2    1         0.5029685089E-03      0.2607594525E-02
          0                 9           1             1    2     1       0.8685484648E-05       1    2    1         0.2257874739E-03      0.1167602683E-02

    ------------------------------------------------
       NWT REQUIRED            9 OUTER ITERATIONS 
       AND A TOTAL OF         14 INNER ITERATIONS.
    ------------------------------------------------

 NO OUTPUT CONTROL FOR STRESS PERIOD    8   TIME STEP   17
 
 SOLVING FOR HEAD 
                                                   Max.-Head-Change                         Max.-Flux-Residual
  Residual-Control   Outer-Iter.   Inner-Iter.     Column Row Layer    Maximum-Head-Change  Column Row Layer    Maximum-Flux-Residual          L2-NORM 
          0                 1           2             7   13     1      -0.2505095773E-01       7   13    1        -0.1339728642E+01      0.2904378058E+01
          0                 2           2             7   13     1       0.2478379130E-02       7   13    1         0.1339410424E+00      0.4756657773E+00
          0                 3           2             1    2     1       0.1060786290E-02       1    2    1         0.2756651064E-01      0.1528332987E+00
          0                 4           2             1    2     1       0.4762974787E-03       1    2    1         0.1238013875E-01      0.6527267926E-01
          0                 5           2             1    2     1       0.2138314828E-03       1    2    1         0.5558468287E-02      0.2903813955E-01
          0                 6           1             1    2     1       0.9599372692E-04       1    2    1         0.2495401490E-02      0.1298826942E-01
          0                 7           1             1    2     1       0.4309287271E-04       1    2    1         0.1120233362E-02      0.5814281594E-02
          0                 8           1             1    2     1       0.1934481964E-04       1    2    1         0.5028863812E-03      0.2603263668E-02
          0                 9           1             1    2     1       0.8684055763E-05       1    2    1         0.2257504529E-03      0.1165667053E-02

    ------------------------------------------------
       NWT REQUIRED            9 OUTER ITERATIONS 
       AND A TOTAL OF         14 INNER ITERATIONS.
    ------------------------------------------------

 NO OUTPUT CONTROL FOR STRESS PERIOD    8   TIME STEP   18
 
 SOLVING FOR HEAD 
                                                   Max.-Head-Change                         Max.-Flux-Residual
  Residual-Control   Outer-Iter.   Inner-Iter.     Column Row Layer    Maximum-Head-Change  Column Row Layer    Maximum-Flux-Residual          L2-NORM 
          0                 1           2             7   13     1      -0.2434841625E-01       7   13    1        -0.1301896933E+01      0.2836628648E+01
          0                 2           2             7   13     1       0.2408389642E-02       7   13    1         0.1301585204E+00      0.4713747699E+00
          0                 3           2             1    2     1       0.1060614466E-02       1    2    1         0.2756206283E-01      0.1525221928E+00
          0                 4           2             1    2     1       0.4762199883E-03       1    2    1         0.1237813171E-01      0.6517096106E-01
          0                 5           2             1    2     1       0.2137965473E-03       1    2    1         0.5557563241E-02      0.2899299668E-01
          0                 6           1             1    2     1       0.9597797918E-04       1    2    1         0.2494993488E-02      0.1296806051E-01
          0                 7           1             1    2     1       0.4308577480E-04       1    2    1         0.1120049455E-02      0.5805234420E-02
          0                 8           1             1    2     1       0.1934162022E-04       1    2    1         0.5028034845E-03      0.2599213603E-02
          0                 9           1             1    2     1       0.8682614123E-05       1    2    1         0.2257130937E-03      0.1163854691E-02

    ------------------------------------------------
       NWT REQUIRED            9 OUTER ITERATIONS 
       AND A TOTAL OF         14 INNER ITERATIONS.
    ------------------------------------------------

 NO OUTPUT CONTROL FOR STRESS PERIOD    8   TIME STEP   19
 
 SOLVING FOR HEAD 
                                                   Max.-Head-Change                         Max.-Flux-Residual
  Residual-Control   Outer-Iter.   Inner-Iter.     Column Row Layer    Maximum-Head-Change  Column Row Layer    Maximum-Flux-Residual          L2-NORM 
          0                 1           2             7   13     1      -0.2367074618E-01       7   13    1        -0.1265409945E+01      0.2773401231E+01
          0                 2           2             1    2     1       0.2360967493E-02       7   13    1         0.1265101824E+00      0.4673838808E+00
          0                 3           2             1    2     1       0.1060441021E-02       1    2    1         0.2755757286E-01      0.1522197157E+00
          0                 4           2             1    2     1       0.4761417703E-03       1    2    1         0.1237610575E-01      0.6507004937E-01
          0                 5           2             1    2     1       0.2137612857E-03       1    2    1         0.5556649712E-02      0.2894818748E-01
          0                 6           1             1    2     1       0.9596208512E-04       1    2    1         0.2494581676E-02      0.1294800168E-01
          0                 7           1             1    2     1       0.4307861087E-04       1    2    1         0.1119863830E-02      0.5796255504E-02
          0                 8           1             1    2     1       0.1933839153E-04       1    2    1         0.5027198218E-03      0.2595194191E-02
          0                 9           1             1    2     1       0.8681158727E-05       1    2    1         0.2256753854E-03      0.1162054365E-02

    ------------------------------------------------
       NWT REQUIRED            9 OUTER ITERATIONS 
       AND A TOTAL OF         14 INNER ITERATIONS.
    ------------------------------------------------

 NO OUTPUT CONTROL FOR STRESS PERIOD    8   TIME STEP   20
 
 SOLVING FOR HEAD 
                                                   Max.-Head-Change                         Max.-Flux-Residual
  Residual-Control   Outer-Iter.   Inner-Iter.     Column Row Layer    Maximum-Head-Change  Column Row Layer    Maximum-Flux-Residual          L2-NORM 
          0                 1           2             7   13     1      -0.2301700939E-01       7   13    1        -0.1230223930E+01      0.2714379382E+01
          0                 2           2             1    2     1       0.2360579638E-02       7   13    1         0.1229921258E+00      0.4636715506E+00
          0                 3           2             1    2     1       0.1060265970E-02       1    2    1         0.2755304108E-01      0.1519287356E+00
          0                 4           2             1    2     1       0.4760628315E-03       1    2    1         0.1237406105E-01      0.6497273405E-01
          0                 5           2             1    2     1       0.2137257006E-03       1    2    1         0.5555727772E-02      0.2890508172E-01
          0                 6           1             1    2     1       0.9594604575E-04       1    2    1         0.2494166091E-02      0.1292872448E-01
          0                 7           1             1    2     1       0.4307138166E-04       1    2    1         0.1119676518E-02      0.5787649684E-02
          0                 8           1             1    2     1       0.1933513359E-04       1    2    1         0.5026354034E-03      0.2591379773E-02
          0                 9           1             1    2     1       0.8679690325E-05       1    2    1         0.2256373385E-03      0.1160327700E-02

    ------------------------------------------------
       NWT REQUIRED            9 OUTER ITERATIONS 
       AND A TOTAL OF         14 INNER ITERATIONS.
    ------------------------------------------------

 NO OUTPUT CONTROL FOR STRESS PERIOD    8   TIME STEP   21
 
 SOLVING FOR HEAD 
                                                   Max.-Head-Change                         Max.-Flux-Residual
  Residual-Control   Outer-Iter.   Inner-Iter.     Column Row Layer    Maximum-Head-Change  Column Row Layer    Maximum-Flux-Residual          L2-NORM 
          0                 1           2             7   13     1      -0.2238635578E-01       7   13    1        -0.1196282404E+01      0.2659331177E+01
          0                 2           2             1    2     1       0.2360188180E-02       7   13    1         0.1195984426E+00      0.4602549739E+00
          0                 3           2             1    2     1       0.1060089299E-02       1    2    1         0.2754846723E-01      0.1516588483E+00
          0                 4           2             1    2     1       0.4759831654E-03       1    2    1         0.1237199745E-01      0.6488024504E-01
          0                 5           2             1    2     1       0.2136897894E-03       1    2    1         0.5554797352E-02      0.2886396589E-01
          0                 6           1             1    2     1       0.9592986007E-04       1    2    1         0.2493746698E-02      0.1291031395E-01
          0                 7           1             1    2     1       0.4306408693E-04       1    2    1         0.1119487497E-02      0.5779387256E-02
          0                 8           1             1    2     1       0.1933184613E-04       1    2    1         0.5025502178E-03      0.2587643311E-02
          0                 9           1             1    2     1       0.8678209167E-05       1    2    1         0.2255989512E-03      0.1158673559E-02

    ------------------------------------------------
       NWT REQUIRED            9 OUTER ITERATIONS 
       AND A TOTAL OF         14 INNER ITERATIONS.
    ------------------------------------------------

 NO OUTPUT CONTROL FOR STRESS PERIOD    8   TIME STEP   22
 
 SOLVING FOR HEAD 
                                                   Max.-Head-Change                         Max.-Flux-Residual
  Residual-Control   Outer-Iter.   Inner-Iter.     Column Row Layer    Maximum-Head-Change  Column Row Layer    Maximum-Flux-Residual          L2-NORM 
          0                 1           2             7   13     1      -0.2177755764E-01       7   13    1        -0.1163505610E+01      0.2607737100E+01
          0                 2           2             1    2     1       0.2359793211E-02       7   13    1         0.1163205673E+00      0.4569435995E+00
          0                 3           2             1    2     1       0.1059911057E-02       1    2    1         0.2754385246E-01      0.1513908331E+00
          0                 4           2             1    2     1       0.4759027955E-03       1    2    1         0.1236991552E-01      0.6478745169E-01
          0                 5           2             1    2     1       0.2136535618E-03       1    2    1         0.5553858709E-02      0.2882273805E-01
          0                 6           1             1    2     1       0.9591353232E-04       1    2    1         0.2493323621E-02      0.1289186084E-01
          0                 7           1             1    2     1       0.4305672916E-04       1    2    1         0.1119296826E-02      0.5771128192E-02
          0                 8           1             1    2     1       0.1932853016E-04       1    2    1         0.5024642849E-03      0.2583944564E-02
          0                 9           1             1    2     1       0.8676714254E-05       1    2    1         0.2255602209E-03      0.1157017223E-02

    ------------------------------------------------
       NWT REQUIRED            9 OUTER ITERATIONS 
       AND A TOTAL OF         14 INNER ITERATIONS.
    ------------------------------------------------

 NO OUTPUT CONTROL FOR STRESS PERIOD    8   TIME STEP   23
 
 SOLVING FOR HEAD 
                                                   Max.-Head-Change                         Max.-Flux-Residual
  Residual-Control   Outer-Iter.   Inner-Iter.     Column Row Layer    Maximum-Head-Change  Column Row Layer    Maximum-Flux-Residual          L2-NORM 
          0                 1           2             7   13     1      -0.2119021387E-01       7   13    1        -0.1131875411E+01      0.2559454679E+01
          0                 2           2             1    2     1       0.2359394702E-02       7   13    1         0.1131587068E+00      0.4538372974E+00
          0                 3           2             1    2     1       0.1059731225E-02       1    2    1         0.2753919637E-01      0.1511337499E+00
          0                 4           2             1    2     1       0.4758217112E-03       1    2    1         0.1236781503E-01      0.6469880070E-01
          0                 5           2             1    2     1       0.2136170138E-03       1    2    1         0.5552911732E-02      0.2878337051E-01
          0                 6           1             1    2     1       0.9589706125E-04       1    2    1         0.2492896801E-02      0.1287423511E-01
          0                 7           1             1    2     1       0.4304930586E-04       1    2    1         0.1119104463E-02      0.5763233912E-02
          0                 8           1             1    2     1       0.1932518492E-04       1    2    1         0.5023775998E-03      0.2580409975E-02
          0                 9           1             1    2     1       0.8675207335E-05       1    2    1         0.2255211619E-03      0.1155433989E-02

    ------------------------------------------------
       NWT REQUIRED            9 OUTER ITERATIONS 
       AND A TOTAL OF         14 INNER ITERATIONS.
    ------------------------------------------------

 NO OUTPUT CONTROL FOR STRESS PERIOD    8   TIME STEP   24
 
 SOLVING FOR HEAD 
                                                   Max.-Head-Change                         Max.-Flux-Residual
  Residual-Control   Outer-Iter.   Inner-Iter.     Column Row Layer    Maximum-Head-Change  Column Row Layer    Maximum-Flux-Residual          L2-NORM 
          0                 1           2             7   13     1      -0.2062287034E-01       7   13    1        -0.1101316272E+01      0.2514354990E+01
          0                 2           2             1    2     1       0.2358992745E-02       7   13    1         0.1101032838E+00      0.4509742779E+00
          0                 3           2             1    2     1       0.1059549850E-02       1    2    1         0.2753450008E-01      0.1508884411E+00
          0                 4           2             1    2     1       0.4757399352E-03       1    2    1         0.1236569654E-01      0.6461326667E-01
          0                 5           2             1    2     1       0.2135801557E-03       1    2    1         0.5551956692E-02      0.2874538310E-01
          0                 6           1             1    2     1       0.9588045063E-04       1    2    1         0.2492466362E-02      0.1285722219E-01
          0                 7           1             1    2     1       0.4304182054E-04       1    2    1         0.1118910487E-02      0.5755612820E-02
          0                 8           1             1    2     1       0.1932181217E-04       1    2    1         0.5022901873E-03      0.2576995663E-02
          0                 9           1             1    2     1       0.8673687160E-05       1    2    1         0.2254817668E-03      0.1153904448E-02

    ------------------------------------------------
       NWT REQUIRED            9 OUTER ITERATIONS 
       AND A TOTAL OF         14 INNER ITERATIONS.
    ------------------------------------------------

 NO OUTPUT CONTROL FOR STRESS PERIOD    8   TIME STEP   25
 
 SOLVING FOR HEAD 
                                                   Max.-Head-Change                         Max.-Flux-Residual
  Residual-Control   Outer-Iter.   Inner-Iter.     Column Row Layer    Maximum-Head-Change  Column Row Layer    Maximum-Flux-Residual          L2-NORM 
          0                 1           2             7   13     1      -0.2007525180E-01       7   13    1        -0.1071813904E+01      0.2471939276E+01
          0                 2           2             1    2     1       0.2358587298E-02       7   13    1         0.1092234973E+00      0.4488565553E+00
          0                 3           2             1    2     1       0.1059366905E-02       1    2    1         0.2752976303E-01      0.1506547885E+00
          0                 4           2             1    2     1       0.4756574545E-03       1    2    1         0.1236355974E-01      0.6452752219E-01
          0                 5           2             1    2     1       0.2135429812E-03       1    2    1         0.5550993420E-02      0.2870719671E-01
          0                 6           1             1    2     1       0.9586369769E-04       1    2    1         0.2492032225E-02      0.1284011889E-01
          0                 7           1             1    2     1       0.4303427169E-04       1    2    1         0.1118714851E-02      0.5747951362E-02
          0                 8           1             1    2     1       0.1931841016E-04       1    2    1         0.5022020299E-03      0.2573563207E-02
          0                 9           1             1    2     1       0.8672154729E-05       1    2    1         0.2254420502E-03      0.1152366242E-02

    ------------------------------------------------
       NWT REQUIRED            9 OUTER ITERATIONS 
       AND A TOTAL OF         14 INNER ITERATIONS.
    ------------------------------------------------

 NO OUTPUT CONTROL FOR STRESS PERIOD    8   TIME STEP   26
 
 SOLVING FOR HEAD 
                                                   Max.-Head-Change                         Max.-Flux-Residual
  Residual-Control   Outer-Iter.   Inner-Iter.     Column Row Layer    Maximum-Head-Change  Column Row Layer    Maximum-Flux-Residual          L2-NORM 
          0                 1           2             6   13     1      -0.1949101566E-01       7   13    1        -0.1042022616E+01      0.2431568276E+01
          0                 2           2             1    2     1       0.2358178468E-02       7   13    1         0.1127133494E+00      0.4480856902E+00
          0                 3           2             1    2     1       0.1059182449E-02       1    2    1         0.2752498658E-01      0.1504671159E+00
          0                 4           2             1    2     1       0.4755742959E-03       1    2    1         0.1236140530E-01      0.6444557565E-01
          0                 5           2             1    2     1       0.2135055028E-03       1    2    1         0.5550022244E-02      0.2867046636E-01
          0                 6           1             1    2     1       0.9584680894E-04       1    2    1         0.2491594546E-02      0.1282366327E-01
          0                 7           1             1    2     1       0.4302666081E-04       1    2    1         0.1118517617E-02      0.5740578996E-02
          0                 8           1             1    2     1       0.1931498139E-04       1    2    1         0.5021131618E-03      0.2570260061E-02
          0                 9           1             1    2     1       0.8670609293E-05       1    2    1         0.2254020010E-03      0.1150886197E-02

    ------------------------------------------------
       NWT REQUIRED            9 OUTER ITERATIONS 
       AND A TOTAL OF         14 INNER ITERATIONS.
    ------------------------------------------------

 NO OUTPUT CONTROL FOR STRESS PERIOD    8   TIME STEP   27
 
 SOLVING FOR HEAD 
                                                   Max.-Head-Change                         Max.-Flux-Residual
  Residual-Control   Outer-Iter.   Inner-Iter.     Column Row Layer    Maximum-Head-Change  Column Row Layer    Maximum-Flux-Residual          L2-NORM 
          0                 1           2             6   13     1      -0.1905043894E-01       6   13    1        -0.1013778173E+01      0.2388429040E+01
          0                 2           2             1    2     1       0.2357766226E-02       7   13    1         0.1074431309E+00      0.4452220222E+00
          0                 3           2             1    2     1       0.1058996458E-02       1    2    1         0.2752017026E-01      0.1502370036E+00
          0                 4           2             1    2     1       0.4754904489E-03       1    2    1         0.1235923294E-01      0.6436507477E-01
          0                 5           2             1    2     1       0.2134677146E-03       1    2    1         0.5549043021E-02      0.2863468141E-01
          0                 6           1             1    2     1       0.9582978088E-04       1    2    1         0.2491153260E-02      0.1280763125E-01
          0                 7           1             1    2     1       0.4301898890E-04       1    2    1         0.1118318777E-02      0.5733394729E-02
          0                 8           1             1    2     1       0.1931152461E-04       1    2    1         0.5020235608E-03      0.2567040503E-02
          0                 9           1             1    2     1       0.8669051602E-05       1    2    1         0.2253616263E-03      0.1149443120E-02

    ------------------------------------------------
       NWT REQUIRED            9 OUTER ITERATIONS 
       AND A TOTAL OF         14 INNER ITERATIONS.
    ------------------------------------------------

 NO OUTPUT CONTROL FOR STRESS PERIOD    8   TIME STEP   28
 
 SOLVING FOR HEAD 
                                                   Max.-Head-Change                         Max.-Flux-Residual
  Residual-Control   Outer-Iter.   Inner-Iter.     Column Row Layer    Maximum-Head-Change  Column Row Layer    Maximum-Flux-Residual          L2-NORM 
          0                 1           2             6   13     1      -0.1861558452E-01       6   13    1        -0.9908993229E+00      0.2342965419E+01
          0                 2           2             1    2     1       0.2357350596E-02       7   13    1         0.1016225679E+00      0.4422459779E+00
          0                 3           2             1    2     1       0.1058808947E-02       1    2    1         0.2751531443E-01      0.1500041129E+00
          0                 4           2             1    2     1       0.4754059199E-03       1    2    1         0.1235704287E-01      0.6428380966E-01
          0                 5           2             1    2     1       0.2134296209E-03       1    2    1         0.5548055855E-02      0.2859855502E-01
          0                 6           1             1    2     1       0.9581261626E-04       1    2    1         0.2490708404E-02      0.1279144291E-01
          0                 7           1             1    2     1       0.4301125447E-04       1    2    1         0.1118118320E-02      0.5726138716E-02
          0                 8           1             1    2     1       0.1930803906E-04       1    2    1         0.5019332389E-03      0.2563787998E-02
          0                 9           1             1    2     1       0.8667481905E-05       1    2    1         0.2253209382E-03      0.1147985329E-02

    ------------------------------------------------
       NWT REQUIRED            9 OUTER ITERATIONS 
       AND A TOTAL OF         14 INNER ITERATIONS.
    ------------------------------------------------

 NO OUTPUT CONTROL FOR STRESS PERIOD    8   TIME STEP   29
 
 SOLVING FOR HEAD 
                                                   Max.-Head-Change                         Max.-Flux-Residual
  Residual-Control   Outer-Iter.   Inner-Iter.     Column Row Layer    Maximum-Head-Change  Column Row Layer    Maximum-Flux-Residual          L2-NORM 
          0                 1           2             6   13     1      -0.2049286783E-01       6   13    1        -0.1091953025E+01      0.2740039764E+01
          0                 2           2             1    2     1       0.2354352193E-02       6   13    1         0.1091162319E+00      0.4542504613E+00
          0                 3           2             1    2     1       0.1057292616E-02       1    2    1         0.2747870749E-01      0.1491484450E+00
          0                 4           2             1    2     1       0.4746954835E-03       1    2    1         0.1233906638E-01      0.6407734604E-01
          0                 5           2             1    2     1       0.2131054502E-03       1    2    1         0.5539716001E-02      0.2853317268E-01
          0                 6           1             1    2     1       0.9566614148E-04       1    2    1         0.2486916665E-02      0.1276437601E-01
          0                 7           1             1    2     1       0.4294531744E-04       1    2    1         0.1116407393E-02      0.5714238842E-02
          0                 8           1             1    2     1       0.1927839965E-04       1    2    1         0.5011634526E-03      0.2558503080E-02
          0                 9           1             1    2     1       0.8654165493E-05       1    2    1         0.2249749756E-03      0.1145633955E-02

    ------------------------------------------------
       NWT REQUIRED            9 OUTER ITERATIONS 
       AND A TOTAL OF         14 INNER ITERATIONS.
    ------------------------------------------------

 NO OUTPUT CONTROL FOR STRESS PERIOD    8   TIME STEP   30



 STREAM LISTING     PERIOD      8   STEP       30

 LAYER ROW COL. STREAM  RCH.  FLOW INTO     FLOW TO   FLOW OUT OF   OVRLND.     DIRECT     STREAM       STREAM     STREAM     STREAM   STREAMBED  STREAMBED
                SEG.NO.  NO.  STRM. RCH.    AQUIFER    STRM. RCH.    RUNOFF     PRECIP       ET          HEAD       DEPTH      WIDTH   CONDCTNC.   GRADIENT

   1    1    1     1     1    3.6662E+01  2.9230E-01   3.6370E+01  0.000E+00  0.000E+00  0.000E+00  1.09435E+03  1.306E+00  1.509E+01  6.789E-02  1.435E+00
   1    2    2     1     2    3.6370E+01  4.5261E-01   3.5917E+01  0.000E+00  0.000E+00  0.000E+00  1.08936E+03  1.303E+00  1.503E+01  1.052E-01  1.434E+00
   1    3    3     1     3    3.5917E+01  3.8593E-01   3.5531E+01  0.000E+00  0.000E+00  0.000E+00  1.08372E+03  1.299E+00  1.496E+01  8.976E-02  1.433E+00
   1    3    4     1     4    3.5531E+01  3.5533E-01   3.5176E+01  0.000E+00  0.000E+00  0.000E+00  1.07870E+03  1.296E+00  1.490E+01  8.270E-02  1.432E+00
   1    4    5     2     1    3.3176E+01  3.4527E-01   3.2831E+01  0.000E+00  0.000E+00  0.000E+00  1.07336E+03  1.427E+00  1.200E+01  7.800E-02  1.476E+00
   1    5    6     2     2    3.2831E+01  2.6512E-01   3.2566E+01  0.000E+00  0.000E+00  0.000E+00  1.06793E+03  1.419E+00  1.200E+01  6.000E-02  1.473E+00
   1    6    6     2     3    3.2566E+01  2.6470E-01   3.2301E+01  0.000E+00  0.000E+00  0.000E+00  1.06320E+03  1.412E+00  1.200E+01  6.000E-02  1.471E+00
   1    7    6     2     4    3.2301E+01  2.6429E-01   3.2037E+01  0.000E+00  0.000E+00  0.000E+00  1.05848E+03  1.405E+00  1.200E+01  6.000E-02  1.468E+00
   1    8    6     2     5    3.2037E+01  2.6387E-01   3.1773E+01  0.000E+00  0.000E+00  0.000E+00  1.05376E+03  1.398E+00  1.200E+01  6.000E-02  1.466E+00
   1    3    5     3     1    2.0000E+00  2.8252E-01   1.7175E+00  0.000E+00  0.000E+00  0.000E+00  1.07555E+03  1.909E+00  9.636E+00  7.227E-02  1.955E+00
   1    3    6     3     2    1.7175E+00  2.4905E-01   1.4684E+00  0.000E+00  0.000E+00  0.000E+00  1.07264E+03  1.727E+00  8.909E+00  6.682E-02  1.864E+00
   1    3    7     3     3    1.4684E+00  1.9718E-01   1.2712E+00  0.000E+00  0.000E+00  0.000E+00  1.06987E+03  1.555E+00  8.218E+00  5.547E-02  1.777E+00
   1    4    8     3     4    1.2712E+00  2.2567E-01   1.0456E+00  0.000E+00  0.000E+00  0.000E+00  1.06682E+03  1.364E+00  7.455E+00  6.709E-02  1.682E+00
   1    5    8     3     5    1.0456E+00  1.5790E-01   8.8768E-01  0.000E+00  0.000E+00  0.000E+00  1.06362E+03  1.164E+00  6.655E+00  4.991E-02  1.582E+00
   1    6    8     3     6    8.8768E-01  5.5980E-02   8.3170E-01  0.000E+00  0.000E+00  0.000E+00  1.06158E+03  1.036E+00  6.145E+00  1.844E-02  1.518E+00
   1    5   10     4     1    1.0000E+01  9.0919E-02   9.9091E+00  0.000E+00  0.000E+00  0.000E+00  1.07836E+03  6.368E-01  1.000E+01  2.500E-02  1.212E+00
   1    5    9     4     2    9.9091E+00  1.8158E-01   9.7275E+00  0.000E+00  0.000E+00  0.000E+00  1.07154E+03  6.315E-01  1.000E+01  5.000E-02  1.211E+00
   1    6    8     4     3    9.7275E+00  1.2689E-01   9.6006E+00  0.000E+00  0.000E+00  0.000E+00  1.06381E+03  6.256E-01  1.000E+01  3.500E-02  1.209E+00
   1    6    8     5     1    1.0432E+01  2.2686E-01   1.0205E+01  0.000E+00  0.000E+00  0.000E+00  1.05868E+03  6.790E-01  1.542E+01  6.166E-02  1.226E+00
   1    7    7     5     2    1.0205E+01  2.7894E-01   9.9265E+00  0.000E+00  0.000E+00  0.000E+00  1.05417E+03  6.732E-01  1.519E+01  7.594E-02  1.224E+00
   1    8    7     5     3    9.9265E+00  1.9221E-01   9.7343E+00  0.000E+00  0.000E+00  0.000E+00  1.04992E+03  6.676E-01  1.497E+01  5.241E-02  1.223E+00
   1    8    6     5     4    9.7343E+00  1.3577E-01   9.5985E+00  0.000E+00  0.000E+00  0.000E+00  1.04691E+03  6.637E-01  1.482E+01  3.706E-02  1.221E+00
   1    9    6     6     1    3.6371E+01  2.7154E-01   3.6100E+01  0.000E+00  0.000E+00  0.000E+00  1.04425E+03  1.526E+00  1.200E+01  6.000E-02  1.509E+00
   1   10    7     6     2    3.6100E+01  2.7113E-01   3.5829E+01  0.000E+00  0.000E+00  0.000E+00  1.03970E+03  1.519E+00  1.200E+01  6.000E-02  1.506E+00
   1   11    7     6     3    3.5829E+01  2.7071E-01   3.5558E+01  0.000E+00  0.000E+00  0.000E+00  1.03515E+03  1.512E+00  1.200E+01  6.000E-02  1.504E+00
   1   12    7     6     4    3.5558E+01  2.7030E-01   3.5288E+01  0.000E+00  0.000E+00  0.000E+00  1.03060E+03  1.505E+00  1.200E+01  6.000E-02  1.502E+00
   1   13    7     6     5    3.5288E+01  1.1584E-02   3.5276E+01  0.000E+00  0.000E+00  0.000E+00  1.02741E+03  1.501E+00  1.200E+01  2.400E-02  1.609E-01
   1   14    9     7     1    1.5000E+02  1.1628E+00   1.4884E+02  0.000E+00  0.000E+00  0.000E+00  1.03987E+03  2.288E+00  5.530E+01  5.593E-01  6.930E-01
   1   13    8     7     2    1.4884E+02  1.6265E+00   1.4721E+02  0.000E+00  0.000E+00  0.000E+00  1.03478E+03  2.281E+00  5.526E+01  6.149E-01  8.818E-01
   1   13    7     7     3    1.4721E+02  1.5437E+00   1.4567E+02  0.000E+00  0.000E+00  0.000E+00  1.02969E+03  2.272E+00  5.523E+01  5.585E-01  9.213E-01
   1   13    6     8     1    1.8094E+02  1.0284E+00   1.7991E+02  0.000E+00  0.000E+00  0.000E+00  1.02489E+03  3.019E+00  4.377E+01  4.461E-01  7.685E-01
   1   13    5     8     2    1.7991E+02  2.8312E-01   1.7963E+02  0.000E+00  0.000E+00  0.000E+00  1.01864E+03  3.015E+00  4.371E+01  4.455E-01  2.119E-01
   1   13    4     8     3    1.7963E+02 -1.9233E+00   1.8155E+02  0.000E+00  0.000E+00  0.000E+00  1.01239E+03  3.020E+00  4.379E+01  4.462E+00 -1.437E-01
   1   13    3     8     4    1.8155E+02 -2.9781E+00   1.8453E+02  0.000E+00  0.000E+00  0.000E+00  1.00616E+03  3.035E+00  4.401E+01  4.485E+00 -2.214E-01
   1   13    2     8     5    1.8453E+02 -1.5506E+00   1.8608E+02  0.000E+00  0.000E+00  0.000E+00  9.99924E+02  3.049E+00  4.421E+01  4.506E+00 -1.147E-01
   1   13    1     8     6    1.8608E+02 -9.1385E-01   1.8700E+02  0.000E+00  0.000E+00  0.000E+00  9.94932E+02  3.057E+00  4.432E+01  2.710E+00 -1.124E-01
   1    6    8     9     1    5.0000E+00  0.0000E+00   5.0000E+00  0.000E+00  0.000E+00  0.000E+00  1.07886E+03  3.555E-01  4.000E+00  0.000E+00  1.119E+00





UNSATURATED ZONE PACKAGE VOLUMETRIC BUDGET FOR  TIME STEP    30 STRESS PERIOD    8
  ------------------------------------------------------------------------------



     CUMULATIVE VOLUMES      L**3       RATES FOR THIS TIME STEP      L**3/T
     ------------------                 ------------------------

           IN:                                      IN:
           ---                                      ---
        INFILTRATION =    10716263.2871          INFILTRATION =           5.0001

          OUT:                                     OUT:
          ----                                     ----
              UZF ET =   534420848.6683                UZF ET =           5.0001
        UZF RECHARGE =   477862337.1666          UZF RECHARGE =          23.1649

            IN - OUT = -1001566922.5478              IN - OUT =         -23.1649

          STORAGE:                                 STORAGE:
          --------                                 --------
      STORAGE CHANGE = -1001541493.5300        STORAGE CHANGE =         -23.1649

 PERCENT DISCREPANCY IS DIFFERENCE BETWEEN IN-OUT MINUS CHANGE IN STORAGE
 DIVIDED BY THE AVERAGE OF IN AND OUT TIMES 100

 PERCENT DISCREPANCY =          -0.00     PERCENT DISCREPANCY =           0.00






1
  VOLUMETRIC BUDGET FOR ENTIRE MODEL AT END OF TIME STEP   30, STRESS PERIOD   8
  ------------------------------------------------------------------------------

     CUMULATIVE VOLUMES      L**3       RATES FOR THIS TIME STEP      L**3/T
     ------------------                 ------------------------

           IN:                                      IN:
           ---                                      ---
             STORAGE     =    23605062.0000               STORAGE     =           6.7946
       CONSTANT HEAD     =           0.0000         CONSTANT HEAD     =           0.0000
               WELLS     =           0.0000                 WELLS     =           0.0000
     HEAD DEP BOUNDS     =     5131493.0000       HEAD DEP BOUNDS     =           0.2740
      STREAM LEAKAGE     =   219195568.0000        STREAM LEAKAGE     =          12.0307
        UZF RECHARGE     =   477862336.0000          UZF RECHARGE     =          23.1649
               GW ET     =           0.0000                 GW ET     =           0.0000
     SURFACE LEAKAGE     =           0.0000       SURFACE LEAKAGE     =           0.0000
    SUPPLEMENTARY WELLS  =           0.0000      SUPPLEMENTARY WELLS  =           0.0000

                TOTAL IN =   725794432.0000                  TOTAL IN =          42.2642

          OUT:                                     OUT:
          ----                                     ----
             STORAGE     =   482283840.0000               STORAGE     =          20.7317
       CONSTANT HEAD     =           0.0000         CONSTANT HEAD     =           0.0000
               WELLS     =           0.0000                 WELLS     =           0.0000
     HEAD DEP BOUNDS     =     5378613.5000       HEAD DEP BOUNDS     =           0.2762
      STREAM LEAKAGE     =   190625232.0000        STREAM LEAKAGE     =           7.3659
        UZF RECHARGE     =           0.0000          UZF RECHARGE     =           0.0000
               GW ET     =    47391380.0000                 GW ET     =          13.8869
     SURFACE LEAKAGE     =           0.0000       SURFACE LEAKAGE     =           0.0000
    SUPPLEMENTARY WELLS  =       32303.0273      SUPPLEMENTARY WELLS  =           0.0000

               TOTAL OUT =   725711360.0000                 TOTAL OUT =          42.2607

                IN - OUT =       83072.0000                  IN - OUT =       3.5667E-03

     PERCENT DISCREPANCY =           0.01         PERCENT DISCREPANCY =           0.01






         TIME SUMMARY AT END OF TIME STEP   30 IN STRESS PERIOD    8
                    SECONDS     MINUTES      HOURS       DAYS        YEARS
                    -----------------------------------------------------------
   TIME STEP LENGTH  87600.      1460.0      24.333      1.0139     2.77588E-03
 STRESS PERIOD TIME 2.62800E+06  43800.      730.00      30.417     8.32763E-02
         TOTAL TIME 1.84824E+07 3.08040E+05  5134.0      213.92     0.58567    
1
1
                            STRESS PERIOD NO.    9, LENGTH =   2628000.    
                            -----------------------------------------------

                              NUMBER OF TIME STEPS =    30

                               MULTIPLIER FOR DELT =     1.000

                            INITIAL TIME STEP SIZE =   87600.00    

 WELL NO.  LAYER   ROW   COL   STRESS RATE         
 --------------------------------------------------
      1      1      6      4       0.000    
      2      1      6      7       0.000    
      3      1      7      4       0.000    
      4      1      7      5       0.000    
      5      1      8      4       0.000    
      6      1      8      5       0.000    
      7      1      9      4       0.000    
      8      1      9      5       0.000    
      9      1     10      4       0.000    
     10      1     10      5       0.000    

     10 WELLS

 REUSING NON-PARAMETER GHB CELLS FROM LAST STRESS PERIOD

      2 GHB CELLS

 REUSING STREAM SEGMENT DATA FROM LAST STRESS PERIOD



            AREAL INFILTRATION RATE
 READING ON UNIT   19 WITH FORMAT: (10F4.0)            

            1           2           3           4           5           6           7           8           9          10
 ........................................................................................................................
   1    0.000       0.000       0.000       0.000       0.000       0.000       0.000       0.000       0.000       0.000    
   2    0.000       0.000       0.000       0.000       0.000       0.000       0.000       0.000       0.000       0.000    
   3    0.000       0.000       0.000       0.000       0.000       0.000       0.000       0.000       0.000       0.000    
   4    0.000       0.000       0.000       0.000       0.000       0.000       0.000       0.000       0.000       0.000    
   5    0.000       0.000       0.000       0.000       0.000       0.000       0.000       0.000       0.000       0.000    
   6    0.000       0.000       0.000       0.000       0.000       0.000       0.000       0.000       0.000       0.000    
   7    0.000       0.000       0.000       0.000       0.000       0.000       0.000       0.000       0.000       0.000    
   8    0.000       0.000       0.000       0.000       0.000       0.000       0.000       0.000       0.000       0.000    
   9    0.000       0.000       0.000       0.000       0.000       0.000       0.000       0.000       0.000       0.000    
  10    0.000       0.000       0.000       0.000       0.000       0.000       0.000       0.000       0.000       0.000    
  11    0.000       0.000       0.000       0.000       0.000       0.000       0.000       0.000       0.000       0.000    
  12    0.000       0.000       0.000       0.000       0.000       0.000       0.000       0.000       0.000       0.000    
  13    0.000       0.000       0.000       0.000       0.000       0.000       0.000       0.000       0.000       0.000    
  14    0.000       0.000       0.000       0.000       0.000       0.000       0.000       0.000       0.000       0.000    
  15    0.000       0.000       0.000       0.000       0.000       0.000       0.000       0.000       0.000       0.000    

                  ET RATE =  6.500000E-08

 USING ET EXTINCTION DEPTH FROM PREVIOUS STRESS PERIOD. CURRENT PERIOD IS:       9

 USING EXTINCTION WATER CONTENT FROM PREVIOUS STRESS PERIOD. CURRENT PERIOD IS:       9

 PROCESSING AGO STRESS PERIOD DATA

 READING AGO STRESS PERIOD DATA

 READING IRRIGATION STREAM

 READING IRRIGATION WELL

 READING SUPPLEMENTAL WEL

 END PROCESSING AGO STRESS PERIOD DATA OPTIONS
 
 SOLVING FOR HEAD 
                                                   Max.-Head-Change                         Max.-Flux-Residual
  Residual-Control   Outer-Iter.   Inner-Iter.     Column Row Layer    Maximum-Head-Change  Column Row Layer    Maximum-Flux-Residual          L2-NORM 
          0                 1           2             6   13     1      -0.1310053492E-01       6   13    1        -0.6988283331E+00      0.1967101893E+01
          0                 2           2             1    2     1       0.2351649215E-02       6   13    1         0.6983329782E-01      0.4115365595E+00
          0                 3           2             1    2     1       0.1056068011E-02       1    2    1         0.2744706119E-01      0.1478798415E+00
          0                 4           2             1    2     1       0.4741435992E-03       1    2    1         0.1232475663E-01      0.6394356069E-01
          0                 5           2             1    2     1       0.2128572408E-03       1    2    1         0.5533271911E-02      0.2848142983E-01
          0                 6           1             1    2     1       0.9555459696E-04       1    2    1         0.2484019275E-02      0.1274154893E-01
          0                 7           1             1    2     1       0.4289520495E-04       1    2    1         0.1115105462E-02      0.5704092954E-02
          0                 8           1             1    2     1       0.1925588890E-04       1    2    1         0.5005785750E-03      0.2553989243E-02
          0                 9           1             1    2     1       0.8644054003E-05       1    2    1         0.2247122475E-03      0.1143625176E-02

    ------------------------------------------------
       NWT REQUIRED            9 OUTER ITERATIONS 
       AND A TOTAL OF         14 INNER ITERATIONS.
    ------------------------------------------------

 NO OUTPUT CONTROL FOR STRESS PERIOD    9   TIME STEP    1
 
 SOLVING FOR HEAD 
                                                   Max.-Head-Change                         Max.-Flux-Residual
  Residual-Control   Outer-Iter.   Inner-Iter.     Column Row Layer    Maximum-Head-Change  Column Row Layer    Maximum-Flux-Residual          L2-NORM 
          0                 1           2             6   13     1      -0.1278096026E-01       6   13    1        -0.6817003726E+00      0.1931363890E+01
          0                 2           2             1    2     1       0.2348996413E-02       6   13    1         0.6812235782E-01      0.4093970236E+00
          0                 3           2             1    2     1       0.1054877335E-02       1    2    1         0.2741610887E-01      0.1475894813E+00
          0                 4           2             1    2     1       0.4736089245E-03       1    2    1         0.1231086163E-01      0.6382961866E-01
          0                 5           2             1    2     1       0.2126171009E-03       1    2    1         0.5527031921E-02      0.2843102902E-01
          0                 6           1             1    2     1       0.9544673457E-04       1    2    1         0.2481216615E-02      0.1271911630E-01
          0                 7           1             1    2     1       0.4284675594E-04       1    2    1         0.1113846597E-02      0.5694103064E-02
          0                 8           1             1    2     1       0.1923412649E-04       1    2    1         0.5000131202E-03      0.2549542928E-02
          0                 9           1             1    2     1       0.8634278914E-05       1    2    1         0.2244582557E-03      0.1141650213E-02

    ------------------------------------------------
       NWT REQUIRED            9 OUTER ITERATIONS 
       AND A TOTAL OF         14 INNER ITERATIONS.
    ------------------------------------------------

 NO OUTPUT CONTROL FOR STRESS PERIOD    9   TIME STEP    2
 
 SOLVING FOR HEAD 
                                                   Max.-Head-Change                         Max.-Flux-Residual
  Residual-Control   Outer-Iter.   Inner-Iter.     Column Row Layer    Maximum-Head-Change  Column Row Layer    Maximum-Flux-Residual          L2-NORM 
          0                 1           2             6   13     1      -0.1246911819E-01       6   13    1        -0.6651102510E+00      0.1897795940E+01
          0                 2           2             1    2     1       0.2346342759E-02       6   13    1         0.6646535209E-01      0.4073850324E+00
          0                 3           2             1    2     1       0.1053686261E-02       1    2    1         0.2738514643E-01      0.1473111176E+00
          0                 4           2             1    2     1       0.4730740691E-03       1    2    1         0.1229696195E-01      0.6371887548E-01
          0                 5           2             1    2     1       0.2123768793E-03       1    2    1         0.5520789816E-02      0.2838192081E-01
          0                 6           1             1    2     1       0.9533883616E-04       1    2    1         0.2478413014E-02      0.1269725948E-01
          0                 7           1             1    2     1       0.4279829067E-04       1    2    1         0.1112587309E-02      0.5684372133E-02
          0                 8           1             1    2     1       0.1921235683E-04       1    2    1         0.4994474760E-03      0.2545206286E-02
          0                 9           1             1    2     1       0.8624500072E-05       1    2    1         0.2242041801E-03      0.1139712564E-02

    ------------------------------------------------
       NWT REQUIRED            9 OUTER ITERATIONS 
       AND A TOTAL OF         14 INNER ITERATIONS.
    ------------------------------------------------

 NO OUTPUT CONTROL FOR STRESS PERIOD    9   TIME STEP    3
 
 SOLVING FOR HEAD 
                                                   Max.-Head-Change                         Max.-Flux-Residual
  Residual-Control   Outer-Iter.   Inner-Iter.     Column Row Layer    Maximum-Head-Change  Column Row Layer    Maximum-Flux-Residual          L2-NORM 
          0                 1           2             6   13     1      -0.1216409853E-01       6   13    1        -0.6488970414E+00      0.1866976230E+01
          0                 2           2             1    2     1       0.2343729259E-02       6   13    1         0.6484577144E-01      0.4055099441E+00
          0                 3           2             1    2     1       0.1052513197E-02       1    2    1         0.2735465242E-01      0.1470390344E+00
          0                 4           2             1    2     1       0.4725472975E-03       1    2    1         0.1228327243E-01      0.6360993056E-01
          0                 5           2             1    2     1       0.2121402872E-03       1    2    1         0.5514642046E-02      0.2833361259E-01
          0                 6           1             1    2     1       0.9523256698E-04       1    2    1         0.2475651765E-02      0.1267575828E-01
          0                 7           1             1    2     1       0.4275055723E-04       1    2    1         0.1111347042E-02      0.5674799700E-02
          0                 8           1             1    2     1       0.1919091581E-04       1    2    1         0.4988903756E-03      0.2540943736E-02
          0                 9           1             1    2     1       0.8614869546E-05       1    2    1         0.2239539433E-03      0.1137814231E-02

    ------------------------------------------------
       NWT REQUIRED            9 OUTER ITERATIONS 
       AND A TOTAL OF         14 INNER ITERATIONS.
    ------------------------------------------------

 NO OUTPUT CONTROL FOR STRESS PERIOD    9   TIME STEP    4
 
 SOLVING FOR HEAD 
                                                   Max.-Head-Change                         Max.-Flux-Residual
  Residual-Control   Outer-Iter.   Inner-Iter.     Column Row Layer    Maximum-Head-Change  Column Row Layer    Maximum-Flux-Residual          L2-NORM 
          0                 1           2             6   13     1      -0.1186573112E-01       6   13    1        -0.6330343622E+00      0.1839422913E+01
          0                 2           2             1    2     1       0.2341114199E-02       3    2    1         0.6399579507E-01      0.4038025290E+00
          0                 3           2             1    2     1       0.1051339412E-02       1    2    1         0.2732413999E-01      0.1467723219E+00
          0                 4           2             1    2     1       0.4720201992E-03       1    2    1         0.1226957446E-01      0.6350221901E-01
          0                 5           2             1    2     1       0.2119035486E-03       1    2    1         0.5508490467E-02      0.2828582529E-01
          0                 6           1             1    2     1       0.9512623277E-04       1    2    1         0.2472888800E-02      0.1265446090E-01
          0                 7           1             1    2     1       0.4270279402E-04       1    2    1         0.1110105996E-02      0.5665304440E-02
          0                 8           1             1    2     1       0.1916946153E-04       1    2    1         0.4983329229E-03      0.2536710004E-02
          0                 9           1             1    2     1       0.8605232518E-05       1    2    1         0.2237035441E-03      0.1135926693E-02

    ------------------------------------------------
       NWT REQUIRED            9 OUTER ITERATIONS 
       AND A TOTAL OF         14 INNER ITERATIONS.
    ------------------------------------------------

 OUTPUT CONTROL FOR STRESS PERIOD    9   TIME STEP    5
    PRINT BUDGET
    SAVE BUDGET
 UBUDSV SAVING "         STORAGE" ON UNIT102 AT TIME STEP     5, STRESS PERIOD    9
 UBUDSV SAVING "   CONSTANT HEAD" ON UNIT102 AT TIME STEP     5, STRESS PERIOD    9
 UBUDSV SAVING "FLOW RIGHT FACE " ON UNIT102 AT TIME STEP     5, STRESS PERIOD    9
 UBUDSV SAVING "FLOW FRONT FACE " ON UNIT102 AT TIME STEP     5, STRESS PERIOD    9

  HEAD DEP BOUNDS   PERIOD    9   STEP     5
 BOUNDARY      1   LAYER   1   ROW    13   COL     1   RATE   -0.275088    
 BOUNDARY      2   LAYER   1   ROW    14   COL     9   RATE    0.273925    



 STREAM LISTING     PERIOD      9   STEP        5

 LAYER ROW COL. STREAM  RCH.  FLOW INTO     FLOW TO   FLOW OUT OF   OVRLND.     DIRECT     STREAM       STREAM     STREAM     STREAM   STREAMBED  STREAMBED
                SEG.NO.  NO.  STRM. RCH.    AQUIFER    STRM. RCH.    RUNOFF     PRECIP       ET          HEAD       DEPTH      WIDTH   CONDCTNC.   GRADIENT

   1    1    1     1     1    3.5000E+01  2.8629E-01   3.4714E+01  0.000E+00  0.000E+00  0.000E+00  1.09434E+03  1.292E+00  1.482E+01  6.670E-02  1.431E+00
   1    2    2     1     2    3.4714E+01  4.4325E-01   3.4270E+01  0.000E+00  0.000E+00  0.000E+00  1.08935E+03  1.289E+00  1.476E+01  1.033E-01  1.430E+00
   1    3    3     1     3    3.4270E+01  3.7790E-01   3.3893E+01  0.000E+00  0.000E+00  0.000E+00  1.08370E+03  1.286E+00  1.470E+01  8.817E-02  1.429E+00
   1    3    4     1     4    3.3893E+01  3.4789E-01   3.3545E+01  0.000E+00  0.000E+00  0.000E+00  1.07869E+03  1.283E+00  1.464E+01  8.123E-02  1.428E+00
   1    4    5     2     1    3.1545E+01  3.4194E-01   3.1203E+01  0.000E+00  0.000E+00  0.000E+00  1.07332E+03  1.384E+00  1.200E+01  7.800E-02  1.461E+00
   1    5    6     2     2    3.1203E+01  2.6255E-01   3.0940E+01  0.000E+00  0.000E+00  0.000E+00  1.06789E+03  1.376E+00  1.200E+01  6.000E-02  1.459E+00
   1    6    6     2     3    3.0940E+01  2.6213E-01   3.0678E+01  0.000E+00  0.000E+00  0.000E+00  1.06316E+03  1.369E+00  1.200E+01  6.000E-02  1.456E+00
   1    7    6     2     4    3.0678E+01  2.6171E-01   3.0416E+01  0.000E+00  0.000E+00  0.000E+00  1.05844E+03  1.362E+00  1.200E+01  6.000E-02  1.454E+00
   1    8    6     2     5    3.0416E+01  2.6129E-01   3.0155E+01  0.000E+00  0.000E+00  0.000E+00  1.05371E+03  1.355E+00  1.200E+01  6.000E-02  1.452E+00
   1    3    5     3     1    2.0000E+00  2.8252E-01   1.7175E+00  0.000E+00  0.000E+00  0.000E+00  1.07555E+03  1.909E+00  9.636E+00  7.227E-02  1.955E+00
   1    3    6     3     2    1.7175E+00  2.4905E-01   1.4684E+00  0.000E+00  0.000E+00  0.000E+00  1.07264E+03  1.727E+00  8.909E+00  6.682E-02  1.864E+00
   1    3    7     3     3    1.4684E+00  1.9718E-01   1.2712E+00  0.000E+00  0.000E+00  0.000E+00  1.06987E+03  1.555E+00  8.218E+00  5.547E-02  1.777E+00
   1    4    8     3     4    1.2712E+00  2.2567E-01   1.0456E+00  0.000E+00  0.000E+00  0.000E+00  1.06682E+03  1.364E+00  7.455E+00  6.709E-02  1.682E+00
   1    5    8     3     5    1.0456E+00  1.5790E-01   8.8768E-01  0.000E+00  0.000E+00  0.000E+00  1.06362E+03  1.164E+00  6.655E+00  4.991E-02  1.582E+00
   1    6    8     3     6    8.8768E-01  5.5980E-02   8.3170E-01  0.000E+00  0.000E+00  0.000E+00  1.06158E+03  1.036E+00  6.145E+00  1.844E-02  1.518E+00
   1    5   10     4     1    1.0000E+01  9.0919E-02   9.9091E+00  0.000E+00  0.000E+00  0.000E+00  1.07836E+03  6.368E-01  1.000E+01  2.500E-02  1.212E+00
   1    5    9     4     2    9.9091E+00  1.8158E-01   9.7275E+00  0.000E+00  0.000E+00  0.000E+00  1.07154E+03  6.315E-01  1.000E+01  5.000E-02  1.211E+00
   1    6    8     4     3    9.7275E+00  1.2689E-01   9.6006E+00  0.000E+00  0.000E+00  0.000E+00  1.06381E+03  6.256E-01  1.000E+01  3.500E-02  1.209E+00
   1    6    8     5     1    1.0432E+01  2.2686E-01   1.0205E+01  0.000E+00  0.000E+00  0.000E+00  1.05868E+03  6.790E-01  1.542E+01  6.166E-02  1.226E+00
   1    7    7     5     2    1.0205E+01  2.7894E-01   9.9265E+00  0.000E+00  0.000E+00  0.000E+00  1.05417E+03  6.732E-01  1.519E+01  7.594E-02  1.224E+00
   1    8    7     5     3    9.9265E+00  1.9221E-01   9.7343E+00  0.000E+00  0.000E+00  0.000E+00  1.04992E+03  6.676E-01  1.497E+01  5.241E-02  1.223E+00
   1    8    6     5     4    9.7343E+00  1.3577E-01   9.5985E+00  0.000E+00  0.000E+00  0.000E+00  1.04691E+03  6.637E-01  1.482E+01  3.706E-02  1.221E+00
   1    9    6     6     1    3.4754E+01  2.6907E-01   3.4485E+01  0.000E+00  0.000E+00  0.000E+00  1.04421E+03  1.484E+00  1.200E+01  6.000E-02  1.495E+00
   1   10    7     6     2    3.4485E+01  2.6865E-01   3.4216E+01  0.000E+00  0.000E+00  0.000E+00  1.03966E+03  1.478E+00  1.200E+01  6.000E-02  1.493E+00
   1   11    7     6     3    3.4216E+01  2.6823E-01   3.3948E+01  0.000E+00  0.000E+00  0.000E+00  1.03511E+03  1.471E+00  1.200E+01  6.000E-02  1.490E+00
   1   12    7     6     4    3.3948E+01  2.6782E-01   3.3680E+01  0.000E+00  0.000E+00  0.000E+00  1.03055E+03  1.464E+00  1.200E+01  6.000E-02  1.488E+00
   1   13    7     6     5    3.3680E+01  1.1456E-02   3.3668E+01  0.000E+00  0.000E+00  0.000E+00  1.02737E+03  1.460E+00  1.200E+01  2.400E-02  1.591E-01
   1   14    9     7     1    1.5000E+02  1.1619E+00   1.4884E+02  0.000E+00  0.000E+00  0.000E+00  1.03987E+03  2.288E+00  5.530E+01  5.593E-01  6.925E-01
   1   13    8     7     2    1.4884E+02  1.6352E+00   1.4720E+02  0.000E+00  0.000E+00  0.000E+00  1.03478E+03  2.281E+00  5.526E+01  6.149E-01  8.865E-01
   1   13    7     7     3    1.4720E+02  1.5638E+00   1.4564E+02  0.000E+00  0.000E+00  0.000E+00  1.02969E+03  2.272E+00  5.522E+01  5.585E-01  9.333E-01
   1   13    6     8     1    1.7931E+02  1.0455E+00   1.7826E+02  0.000E+00  0.000E+00  0.000E+00  1.02488E+03  3.009E+00  4.362E+01  4.445E-01  7.839E-01
   1   13    5     8     2    1.7826E+02  2.9287E-01   1.7797E+02  0.000E+00  0.000E+00  0.000E+00  1.01863E+03  3.004E+00  4.356E+01  4.439E-01  2.199E-01
   1   13    4     8     3    1.7797E+02 -1.8372E+00   1.7981E+02  0.000E+00  0.000E+00  0.000E+00  1.01238E+03  3.009E+00  4.363E+01  4.446E+00 -1.377E-01
   1   13    3     8     4    1.7981E+02 -2.9149E+00   1.8272E+02  0.000E+00  0.000E+00  0.000E+00  1.00615E+03  3.024E+00  4.385E+01  4.468E+00 -2.174E-01
   1   13    2     8     5    1.8272E+02 -1.4584E+00   1.8418E+02  0.000E+00  0.000E+00  0.000E+00  9.99913E+02  3.038E+00  4.405E+01  4.489E+00 -1.083E-01
   1   13    1     8     6    1.8418E+02 -8.6179E-01   1.8504E+02  0.000E+00  0.000E+00  0.000E+00  9.94920E+02  3.045E+00  4.415E+01  2.699E+00 -1.064E-01
   1    6    8     9     1    5.0000E+00  0.0000E+00   5.0000E+00  0.000E+00  0.000E+00  0.000E+00  1.07886E+03  3.555E-01  4.000E+00  0.000E+00  1.119E+00



 UBDSV3 SAVING "     NETRECHARGE" ON UNIT 100 AT TIME STEP     5, STRESS PERIOD   9
 UBDSV3 SAVING "    NETDISCHARGE" ON UNIT 101 AT TIME STEP     5, STRESS PERIOD   9
 UBDSV3 SAVING "           GW ET" ON UNIT  61 AT TIME STEP     5, STRESS PERIOD   9
 UBDSV3 SAVING "    UZF RECHARGE" ON UNIT  61 AT TIME STEP     5, STRESS PERIOD   9
 UBDSV3 SAVING " SURFACE LEAKAGE" ON UNIT  61 AT TIME STEP     5, STRESS PERIOD   9
 UBDSV3 SAVING "       HORT+DUNN" ON UNIT  61 AT TIME STEP     5, STRESS PERIOD   9
 UBDSV3 SAVING "  STORAGE CHANGE" ON UNIT  61 AT TIME STEP     5, STRESS PERIOD   9


UNSATURATED ZONE PACKAGE VOLUMETRIC BUDGET FOR  TIME STEP     5 STRESS PERIOD    9
  ------------------------------------------------------------------------------



     CUMULATIVE VOLUMES      L**3       RATES FOR THIS TIME STEP      L**3/T
     ------------------                 ------------------------

           IN:                                      IN:
           ---                                      ---
        INFILTRATION =    12906306.8808          INFILTRATION =           5.0001

          OUT:                                     OUT:
          ----                                     ----
              UZF ET =   536610892.2621                UZF ET =           5.0001
        UZF RECHARGE =   487969630.5949          UZF RECHARGE =          23.0275

            IN - OUT = -1011674215.9762              IN - OUT =         -23.0275

          STORAGE:                                 STORAGE:
          --------                                 --------
      STORAGE CHANGE = -1011648786.9814        STORAGE CHANGE =         -23.0275

 PERCENT DISCREPANCY IS DIFFERENCE BETWEEN IN-OUT MINUS CHANGE IN STORAGE
 DIVIDED BY THE AVERAGE OF IN AND OUT TIMES 100

 PERCENT DISCREPANCY =          -0.00     PERCENT DISCREPANCY =           0.00






1
  VOLUMETRIC BUDGET FOR ENTIRE MODEL AT END OF TIME STEP    5, STRESS PERIOD   9
  ------------------------------------------------------------------------------

     CUMULATIVE VOLUMES      L**3       RATES FOR THIS TIME STEP      L**3/T
     ------------------                 ------------------------

           IN:                                      IN:
           ---                                      ---
             STORAGE     =    25318722.0000               STORAGE     =           3.6560
       CONSTANT HEAD     =           0.0000         CONSTANT HEAD     =           0.0000
               WELLS     =           0.0000                 WELLS     =           0.0000
     HEAD DEP BOUNDS     =     5251483.0000       HEAD DEP BOUNDS     =           0.2739
      STREAM LEAKAGE     =   224453440.0000        STREAM LEAKAGE     =          12.0310
        UZF RECHARGE     =   487969664.0000          UZF RECHARGE     =          23.0275
               GW ET     =           0.0000                 GW ET     =           0.0000
     SURFACE LEAKAGE     =           0.0000       SURFACE LEAKAGE     =           0.0000
    SUPPLEMENTARY WELLS  =           0.0000      SUPPLEMENTARY WELLS  =           0.0000

                TOTAL IN =   742993280.0000                  TOTAL IN =          38.9884

          OUT:                                     OUT:
          ----                                     ----
             STORAGE     =   491279200.0000               STORAGE     =          20.4582
       CONSTANT HEAD     =           0.0000         CONSTANT HEAD     =           0.0000
               WELLS     =           0.0000                 WELLS     =           0.0000
     HEAD DEP BOUNDS     =     5499292.0000       HEAD DEP BOUNDS     =           0.2751
      STREAM LEAKAGE     =   193791792.0000        STREAM LEAKAGE     =           7.0723
        UZF RECHARGE     =           0.0000          UZF RECHARGE     =           0.0000
               GW ET     =    52306044.0000                 GW ET     =          11.1793
     SURFACE LEAKAGE     =           0.0000       SURFACE LEAKAGE     =           0.0000
    SUPPLEMENTARY WELLS  =       32303.0273      SUPPLEMENTARY WELLS  =           0.0000

               TOTAL OUT =   742908672.0000                 TOTAL OUT =          38.9849

                IN - OUT =       84608.0000                  IN - OUT =       3.5133E-03

     PERCENT DISCREPANCY =           0.01         PERCENT DISCREPANCY =           0.01






         TIME SUMMARY AT END OF TIME STEP    5 IN STRESS PERIOD    9
                    SECONDS     MINUTES      HOURS       DAYS        YEARS
                    -----------------------------------------------------------
   TIME STEP LENGTH  87600.      1460.0      24.333      1.0139     2.77588E-03
 STRESS PERIOD TIME 4.38000E+05  7300.0      121.67      5.0694     1.38794E-02
         TOTAL TIME 1.89204E+07 3.15340E+05  5255.7      218.99     0.59955    
1
 
 SOLVING FOR HEAD 
                                                   Max.-Head-Change                         Max.-Flux-Residual
  Residual-Control   Outer-Iter.   Inner-Iter.     Column Row Layer    Maximum-Head-Change  Column Row Layer    Maximum-Flux-Residual          L2-NORM 
          0                 1           2             6   13     1      -0.1157403517E-01       6   13    1        -0.6175229369E+00      0.1814043781E+01
          0                 2           2             1    2     1       0.2338538690E-02       3    2    1         0.6370664665E-01      0.4022322875E+00
          0                 3           2             1    2     1       0.1050183371E-02       1    2    1         0.2729408898E-01      0.1465163854E+00
          0                 4           2             1    2     1       0.4715010657E-03       1    2    1         0.1225608355E-01      0.6339699795E-01
          0                 5           2             1    2     1       0.2116703858E-03       1    2    1         0.5502431832E-02      0.2823902701E-01
          0                 6           1             1    2     1       0.9502150378E-04       1    2    1         0.2470167571E-02      0.1263361151E-01
          0                 7           1             1    2     1       0.4265575163E-04       1    2    1         0.1108883695E-02      0.5656015448E-02
          0                 8           1             1    2     1       0.1914833090E-04       1    2    1         0.4977838922E-03      0.2532570855E-02
          0                 9           1             1    2     1       0.8595741054E-05       1    2    1         0.2234569306E-03      0.1134081388E-02

    ------------------------------------------------
       NWT REQUIRED            9 OUTER ITERATIONS 
       AND A TOTAL OF         14 INNER ITERATIONS.
    ------------------------------------------------

 NO OUTPUT CONTROL FOR STRESS PERIOD    9   TIME STEP    6
 
 SOLVING FOR HEAD 
                                                   Max.-Head-Change                         Max.-Flux-Residual
  Residual-Control   Outer-Iter.   Inner-Iter.     Column Row Layer    Maximum-Head-Change  Column Row Layer    Maximum-Flux-Residual          L2-NORM 
          0                 1           2             6   13     1      -0.1128891433E-01       6   13    1        -0.6023576636E+00      0.1790382338E+01
          0                 2           2             1    2     1       0.2335961101E-02       3    2    1         0.6342400703E-01      0.4007140069E+00
          0                 3           2             1    2     1       0.1049026384E-02       1    2    1         0.2726401358E-01      0.1462617171E+00
          0                 4           2             1    2     1       0.4709815058E-03       1    2    1         0.1224258157E-01      0.6329284368E-01
          0                 5           2             1    2     1       0.2114370317E-03       1    2    1         0.5496368219E-02      0.2819278387E-01
          0                 6           1             1    2     1       0.9491668849E-04       1    2    1         0.2467444105E-02      0.1261301612E-01
          0                 7           1             1    2     1       0.4260867098E-04       1    2    1         0.1107660396E-02      0.5646840775E-02
          0                 8           1             1    2     1       0.1912718351E-04       1    2    1         0.4972344148E-03      0.2528482982E-02
          0                 9           1             1    2     1       0.8586241586E-05       1    2    1         0.2232101121E-03      0.1132259985E-02

    ------------------------------------------------
       NWT REQUIRED            9 OUTER ITERATIONS 
       AND A TOTAL OF         14 INNER ITERATIONS.
    ------------------------------------------------

 NO OUTPUT CONTROL FOR STRESS PERIOD    9   TIME STEP    7
 
 SOLVING FOR HEAD 
                                                   Max.-Head-Change                         Max.-Flux-Residual
  Residual-Control   Outer-Iter.   Inner-Iter.     Column Row Layer    Maximum-Head-Change  Column Row Layer    Maximum-Flux-Residual          L2-NORM 
          0                 1           2             6   13     1      -0.1101016084E-01       6   13    1        -0.5875274727E+00      0.1768668642E+01
          0                 2           2             1    2     1       0.2333422474E-02       3    2    1         0.6314770144E-01      0.3992949616E+00
          0                 3           2             1    2     1       0.1047886870E-02       1    2    1         0.2723439266E-01      0.1460133398E+00
          0                 4           2             1    2     1       0.4704697886E-03       1    2    1         0.1222928348E-01      0.6319045377E-01
          0                 5           2             1    2     1       0.2112071987E-03       1    2    1         0.5490396132E-02      0.2814721452E-01
          0                 6           1             1    2     1       0.9481345491E-04       1    2    1         0.2464761736E-02      0.1259268509E-01
          0                 7           1             1    2     1       0.4256230039E-04       1    2    1         0.1106455544E-02      0.5637770527E-02
          0                 8           1             1    2     1       0.1910635451E-04       1    2    1         0.4966932160E-03      0.2524436605E-02
          0                 9           1             1    2     1       0.8576885682E-05       1    2    1         0.2229670137E-03      0.1130454551E-02

    ------------------------------------------------
       NWT REQUIRED            9 OUTER ITERATIONS 
       AND A TOTAL OF         14 INNER ITERATIONS.
    ------------------------------------------------

 NO OUTPUT CONTROL FOR STRESS PERIOD    9   TIME STEP    8
 
 SOLVING FOR HEAD 
                                                   Max.-Head-Change                         Max.-Flux-Residual
  Residual-Control   Outer-Iter.   Inner-Iter.     Column Row Layer    Maximum-Head-Change  Column Row Layer    Maximum-Flux-Residual          L2-NORM 
          0                 1           2             6   13     1      -0.1073780053E-01       6   13    1        -0.5730331290E+00      0.1748728913E+01
          0                 2           2             1    2     1       0.2330881171E-02       3    2    1         0.6287678419E-01      0.3979623621E+00
          0                 3           2             1    2     1       0.1046746142E-02       1    2    1         0.2720474037E-01      0.1457694813E+00
          0                 4           2             1    2     1       0.4699575242E-03       1    2    1         0.1221597119E-01      0.6308945042E-01
          0                 5           2             1    2     1       0.2109771203E-03       1    2    1         0.5484417655E-02      0.2810228524E-01
          0                 6           1             1    2     1       0.9471011053E-04       1    2    1         0.2462076490E-02      0.1257264998E-01
          0                 7           1             1    2     1       0.4251588053E-04       1    2    1         0.1105249407E-02      0.5628835781E-02
          0                 8           1             1    2     1       0.1908550351E-04       1    2    1         0.4961514411E-03      0.2520451932E-02
          0                 9           1             1    2     1       0.8567519524E-05       1    2    1         0.2227236561E-03      0.1128677442E-02

    ------------------------------------------------
       NWT REQUIRED            9 OUTER ITERATIONS 
       AND A TOTAL OF         14 INNER ITERATIONS.
    ------------------------------------------------

 NO OUTPUT CONTROL FOR STRESS PERIOD    9   TIME STEP    9
 
 SOLVING FOR HEAD 
                                                   Max.-Head-Change                         Max.-Flux-Residual
  Residual-Control   Outer-Iter.   Inner-Iter.     Column Row Layer    Maximum-Head-Change  Column Row Layer    Maximum-Flux-Residual          L2-NORM 
          0                 1           2             6   13     1      -0.1047217604E-01       6   13    1        -0.5588759631E+00      0.1730520521E+01
          0                 2           2             1    2     1       0.2328357635E-02       3    2    1         0.6261189916E-01      0.3967005442E+00
          0                 3           2             1    2     1       0.1045613375E-02       1    2    1         0.2717529528E-01      0.1455268905E+00
          0                 4           2             1    2     1       0.4694488331E-03       1    2    1         0.1220275180E-01      0.6298877515E-01
          0                 5           2             1    2     1       0.2107486454E-03       1    2    1         0.5478480871E-02      0.2805756819E-01
          0                 6           1             1    2     1       0.9460748646E-04       1    2    1         0.2459409975E-02      0.1255272712E-01
          0                 7           1             1    2     1       0.4246978407E-04       1    2    1         0.1104051684E-02      0.5619956986E-02
          0                 8           1             1    2     1       0.1906479756E-04       1    2    1         0.4956134476E-03      0.2516494338E-02
          0                 9           1             1    2     1       0.8558218895E-05       1    2    1         0.2224820034E-03      0.1126913000E-02

    ------------------------------------------------
       NWT REQUIRED            9 OUTER ITERATIONS 
       AND A TOTAL OF         14 INNER ITERATIONS.
    ------------------------------------------------

 OUTPUT CONTROL FOR STRESS PERIOD    9   TIME STEP   10
    PRINT BUDGET
    SAVE BUDGET
 UBUDSV SAVING "         STORAGE" ON UNIT102 AT TIME STEP    10, STRESS PERIOD    9
 UBUDSV SAVING "   CONSTANT HEAD" ON UNIT102 AT TIME STEP    10, STRESS PERIOD    9
 UBUDSV SAVING "FLOW RIGHT FACE " ON UNIT102 AT TIME STEP    10, STRESS PERIOD    9
 UBUDSV SAVING "FLOW FRONT FACE " ON UNIT102 AT TIME STEP    10, STRESS PERIOD    9

  HEAD DEP BOUNDS   PERIOD    9   STEP    10
 BOUNDARY      1   LAYER   1   ROW    13   COL     1   RATE   -0.274181    
 BOUNDARY      2   LAYER   1   ROW    14   COL     9   RATE    0.273868    



 STREAM LISTING     PERIOD      9   STEP       10

 LAYER ROW COL. STREAM  RCH.  FLOW INTO     FLOW TO   FLOW OUT OF   OVRLND.     DIRECT     STREAM       STREAM     STREAM     STREAM   STREAMBED  STREAMBED
                SEG.NO.  NO.  STRM. RCH.    AQUIFER    STRM. RCH.    RUNOFF     PRECIP       ET          HEAD       DEPTH      WIDTH   CONDCTNC.   GRADIENT

   1    1    1     1     1    3.5000E+01  2.8629E-01   3.4714E+01  0.000E+00  0.000E+00  0.000E+00  1.09434E+03  1.292E+00  1.482E+01  6.670E-02  1.431E+00
   1    2    2     1     2    3.4714E+01  4.4325E-01   3.4270E+01  0.000E+00  0.000E+00  0.000E+00  1.08935E+03  1.289E+00  1.476E+01  1.033E-01  1.430E+00
   1    3    3     1     3    3.4270E+01  3.7790E-01   3.3893E+01  0.000E+00  0.000E+00  0.000E+00  1.08370E+03  1.286E+00  1.470E+01  8.817E-02  1.429E+00
   1    3    4     1     4    3.3893E+01  3.4789E-01   3.3545E+01  0.000E+00  0.000E+00  0.000E+00  1.07869E+03  1.283E+00  1.464E+01  8.123E-02  1.428E+00
   1    4    5     2     1    3.1545E+01  3.4194E-01   3.1203E+01  0.000E+00  0.000E+00  0.000E+00  1.07332E+03  1.384E+00  1.200E+01  7.800E-02  1.461E+00
   1    5    6     2     2    3.1203E+01  2.6255E-01   3.0940E+01  0.000E+00  0.000E+00  0.000E+00  1.06789E+03  1.376E+00  1.200E+01  6.000E-02  1.459E+00
   1    6    6     2     3    3.0940E+01  2.6213E-01   3.0678E+01  0.000E+00  0.000E+00  0.000E+00  1.06316E+03  1.369E+00  1.200E+01  6.000E-02  1.456E+00
   1    7    6     2     4    3.0678E+01  2.6171E-01   3.0416E+01  0.000E+00  0.000E+00  0.000E+00  1.05844E+03  1.362E+00  1.200E+01  6.000E-02  1.454E+00
   1    8    6     2     5    3.0416E+01  2.6129E-01   3.0155E+01  0.000E+00  0.000E+00  0.000E+00  1.05371E+03  1.355E+00  1.200E+01  6.000E-02  1.452E+00
   1    3    5     3     1    2.0000E+00  2.8252E-01   1.7175E+00  0.000E+00  0.000E+00  0.000E+00  1.07555E+03  1.909E+00  9.636E+00  7.227E-02  1.955E+00
   1    3    6     3     2    1.7175E+00  2.4905E-01   1.4684E+00  0.000E+00  0.000E+00  0.000E+00  1.07264E+03  1.727E+00  8.909E+00  6.682E-02  1.864E+00
   1    3    7     3     3    1.4684E+00  1.9718E-01   1.2712E+00  0.000E+00  0.000E+00  0.000E+00  1.06987E+03  1.555E+00  8.218E+00  5.547E-02  1.777E+00
   1    4    8     3     4    1.2712E+00  2.2567E-01   1.0456E+00  0.000E+00  0.000E+00  0.000E+00  1.06682E+03  1.364E+00  7.455E+00  6.709E-02  1.682E+00
   1    5    8     3     5    1.0456E+00  1.5790E-01   8.8768E-01  0.000E+00  0.000E+00  0.000E+00  1.06362E+03  1.164E+00  6.655E+00  4.991E-02  1.582E+00
   1    6    8     3     6    8.8768E-01  5.5980E-02   8.3170E-01  0.000E+00  0.000E+00  0.000E+00  1.06158E+03  1.036E+00  6.145E+00  1.844E-02  1.518E+00
   1    5   10     4     1    1.0000E+01  9.0919E-02   9.9091E+00  0.000E+00  0.000E+00  0.000E+00  1.07836E+03  6.368E-01  1.000E+01  2.500E-02  1.212E+00
   1    5    9     4     2    9.9091E+00  1.8158E-01   9.7275E+00  0.000E+00  0.000E+00  0.000E+00  1.07154E+03  6.315E-01  1.000E+01  5.000E-02  1.211E+00
   1    6    8     4     3    9.7275E+00  1.2689E-01   9.6006E+00  0.000E+00  0.000E+00  0.000E+00  1.06381E+03  6.256E-01  1.000E+01  3.500E-02  1.209E+00
   1    6    8     5     1    1.0432E+01  2.2686E-01   1.0205E+01  0.000E+00  0.000E+00  0.000E+00  1.05868E+03  6.790E-01  1.542E+01  6.166E-02  1.226E+00
   1    7    7     5     2    1.0205E+01  2.7894E-01   9.9265E+00  0.000E+00  0.000E+00  0.000E+00  1.05417E+03  6.732E-01  1.519E+01  7.594E-02  1.224E+00
   1    8    7     5     3    9.9265E+00  1.9221E-01   9.7343E+00  0.000E+00  0.000E+00  0.000E+00  1.04992E+03  6.676E-01  1.497E+01  5.241E-02  1.223E+00
   1    8    6     5     4    9.7343E+00  1.3577E-01   9.5985E+00  0.000E+00  0.000E+00  0.000E+00  1.04691E+03  6.637E-01  1.482E+01  3.706E-02  1.221E+00
   1    9    6     6     1    3.4754E+01  2.6907E-01   3.4485E+01  0.000E+00  0.000E+00  0.000E+00  1.04421E+03  1.484E+00  1.200E+01  6.000E-02  1.495E+00
   1   10    7     6     2    3.4485E+01  2.6865E-01   3.4216E+01  0.000E+00  0.000E+00  0.000E+00  1.03966E+03  1.478E+00  1.200E+01  6.000E-02  1.493E+00
   1   11    7     6     3    3.4216E+01  2.6823E-01   3.3948E+01  0.000E+00  0.000E+00  0.000E+00  1.03511E+03  1.471E+00  1.200E+01  6.000E-02  1.490E+00
   1   12    7     6     4    3.3948E+01  2.6782E-01   3.3680E+01  0.000E+00  0.000E+00  0.000E+00  1.03055E+03  1.464E+00  1.200E+01  6.000E-02  1.488E+00
   1   13    7     6     5    3.3680E+01  1.2074E-02   3.3668E+01  0.000E+00  0.000E+00  0.000E+00  1.02737E+03  1.460E+00  1.200E+01  2.400E-02  1.677E-01
   1   14    9     7     1    1.5000E+02  1.1611E+00   1.4884E+02  0.000E+00  0.000E+00  0.000E+00  1.03987E+03  2.288E+00  5.530E+01  5.593E-01  6.920E-01
   1   13    8     7     2    1.4884E+02  1.6434E+00   1.4720E+02  0.000E+00  0.000E+00  0.000E+00  1.03478E+03  2.281E+00  5.526E+01  6.149E-01  8.909E-01
   1   13    7     7     3    1.4720E+02  1.5781E+00   1.4562E+02  0.000E+00  0.000E+00  0.000E+00  1.02969E+03  2.272E+00  5.522E+01  5.585E-01  9.418E-01
   1   13    6     8     1    1.7929E+02  1.0676E+00   1.7822E+02  0.000E+00  0.000E+00  0.000E+00  1.02488E+03  3.008E+00  4.362E+01  4.445E-01  8.006E-01
   1   13    5     8     2    1.7822E+02  3.0707E-01   1.7791E+02  0.000E+00  0.000E+00  0.000E+00  1.01863E+03  3.004E+00  4.356E+01  4.439E-01  2.306E-01
   1   13    4     8     3    1.7791E+02 -1.7536E+00   1.7966E+02  0.000E+00  0.000E+00  0.000E+00  1.01238E+03  3.009E+00  4.362E+01  4.445E+00 -1.315E-01
   1   13    3     8     4    1.7966E+02 -2.8483E+00   1.8251E+02  0.000E+00  0.000E+00  0.000E+00  1.00615E+03  3.023E+00  4.383E+01  4.467E+00 -2.126E-01
   1   13    2     8     5    1.8251E+02 -1.3701E+00   1.8388E+02  0.000E+00  0.000E+00  0.000E+00  9.99911E+02  3.036E+00  4.402E+01  4.486E+00 -1.018E-01
   1   13    1     8     6    1.8388E+02 -8.0229E-01   1.8468E+02  0.000E+00  0.000E+00  0.000E+00  9.94918E+02  3.043E+00  4.412E+01  2.698E+00 -9.913E-02
   1    6    8     9     1    5.0000E+00  0.0000E+00   5.0000E+00  0.000E+00  0.000E+00  0.000E+00  1.07886E+03  3.555E-01  4.000E+00  0.000E+00  1.119E+00



 UBDSV3 SAVING "     NETRECHARGE" ON UNIT 100 AT TIME STEP    10, STRESS PERIOD   9
 UBDSV3 SAVING "    NETDISCHARGE" ON UNIT 101 AT TIME STEP    10, STRESS PERIOD   9
 UBDSV3 SAVING "           GW ET" ON UNIT  61 AT TIME STEP    10, STRESS PERIOD   9
 UBDSV3 SAVING "    UZF RECHARGE" ON UNIT  61 AT TIME STEP    10, STRESS PERIOD   9
 UBDSV3 SAVING " SURFACE LEAKAGE" ON UNIT  61 AT TIME STEP    10, STRESS PERIOD   9
 UBDSV3 SAVING "       HORT+DUNN" ON UNIT  61 AT TIME STEP    10, STRESS PERIOD   9
 UBDSV3 SAVING "  STORAGE CHANGE" ON UNIT  61 AT TIME STEP    10, STRESS PERIOD   9


UNSATURATED ZONE PACKAGE VOLUMETRIC BUDGET FOR  TIME STEP    10 STRESS PERIOD    9
  ------------------------------------------------------------------------------



     CUMULATIVE VOLUMES      L**3       RATES FOR THIS TIME STEP      L**3/T
     ------------------                 ------------------------

           IN:                                      IN:
           ---                                      ---
        INFILTRATION =    15096350.4746          INFILTRATION =           5.0001

          OUT:                                     OUT:
          ----                                     ----
              UZF ET =   538800935.8558                UZF ET =           5.0001
        UZF RECHARGE =   498031561.5075          UZF RECHARGE =          22.9407

            IN - OUT = -1021736146.8887              IN - OUT =         -22.9407

          STORAGE:                                 STORAGE:
          --------                                 --------
      STORAGE CHANGE = -1021710717.8686        STORAGE CHANGE =         -22.9407

 PERCENT DISCREPANCY IS DIFFERENCE BETWEEN IN-OUT MINUS CHANGE IN STORAGE
 DIVIDED BY THE AVERAGE OF IN AND OUT TIMES 100

 PERCENT DISCREPANCY =          -0.00     PERCENT DISCREPANCY =           0.00






1
  VOLUMETRIC BUDGET FOR ENTIRE MODEL AT END OF TIME STEP   10, STRESS PERIOD   9
  ------------------------------------------------------------------------------

     CUMULATIVE VOLUMES      L**3       RATES FOR THIS TIME STEP      L**3/T
     ------------------                 ------------------------

           IN:                                      IN:
           ---                                      ---
             STORAGE     =    26773234.0000               STORAGE     =           3.1119
       CONSTANT HEAD     =           0.0000         CONSTANT HEAD     =           0.0000
               WELLS     =           0.0000                 WELLS     =           0.0000
     HEAD DEP BOUNDS     =     5371448.0000       HEAD DEP BOUNDS     =           0.2739
      STREAM LEAKAGE     =   229738720.0000        STREAM LEAKAGE     =          12.0895
        UZF RECHARGE     =   498031552.0000          UZF RECHARGE     =          22.9407
               GW ET     =           0.0000                 GW ET     =           0.0000
     SURFACE LEAKAGE     =           0.0000       SURFACE LEAKAGE     =           0.0000
    SUPPLEMENTARY WELLS  =           0.0000      SUPPLEMENTARY WELLS  =           0.0000

                TOTAL IN =   759914944.0000                  TOTAL IN =          38.4159

          OUT:                                     OUT:
          ----                                     ----
             STORAGE     =   500191616.0000               STORAGE     =          20.2766
       CONSTANT HEAD     =           0.0000         CONSTANT HEAD     =           0.0000
               WELLS     =           0.0000                 WELLS     =           0.0000
     HEAD DEP BOUNDS     =     5619534.5000       HEAD DEP BOUNDS     =           0.2742
      STREAM LEAKAGE     =   196807600.0000        STREAM LEAKAGE     =           6.7744
        UZF RECHARGE     =           0.0000          UZF RECHARGE     =           0.0000
               GW ET     =    57177740.0000                 GW ET     =          11.0873
     SURFACE LEAKAGE     =           0.0000       SURFACE LEAKAGE     =           0.0000
    SUPPLEMENTARY WELLS  =       32303.0273      SUPPLEMENTARY WELLS  =           0.0000

               TOTAL OUT =   759828800.0000                 TOTAL OUT =          38.4125

                IN - OUT =       86144.0000                  IN - OUT =       3.4637E-03

     PERCENT DISCREPANCY =           0.01         PERCENT DISCREPANCY =           0.01






         TIME SUMMARY AT END OF TIME STEP   10 IN STRESS PERIOD    9
                    SECONDS     MINUTES      HOURS       DAYS        YEARS
                    -----------------------------------------------------------
   TIME STEP LENGTH  87600.      1460.0      24.333      1.0139     2.77588E-03
 STRESS PERIOD TIME 8.76000E+05  14600.      243.33      10.139     2.77588E-02
         TOTAL TIME 1.93584E+07 3.22640E+05  5377.3      224.06     0.61343    
1
 
 SOLVING FOR HEAD 
                                                   Max.-Head-Change                         Max.-Flux-Residual
  Residual-Control   Outer-Iter.   Inner-Iter.     Column Row Layer    Maximum-Head-Change  Column Row Layer    Maximum-Flux-Residual          L2-NORM 
          0                 1           2             6   13     1      -0.1021279694E-01       6   13    1        -0.5450583143E+00      0.1713644903E+01
          0                 2           2             1    2     1       0.2325851590E-02       3    2    1         0.6235211723E-01      0.3955210816E+00
          0                 3           2             1    2     1       0.1044488448E-02       1    2    1         0.2714605417E-01      0.1452922843E+00
          0                 4           2             1    2     1       0.4689436585E-03       1    2    1         0.1218962386E-01      0.6289046807E-01
          0                 5           2             1    2     1       0.2105217496E-03       1    2    1         0.5472585129E-02      0.2801377931E-01
          0                 6           1             1    2     1       0.9450557197E-04       1    2    1         0.2456761883E-02      0.1253318623E-01
          0                 7           1             1    2     1       0.4242400599E-04       1    2    1         0.1102862227E-02      0.5611237432E-02
          0                 8           1             1    2     1       0.1904423469E-04       1    2    1         0.4950791626E-03      0.2512603775E-02
          0                 9           1             1    2     1       0.8548982294E-05       1    2    1         0.2222420080E-03      0.1125177123E-02

    ------------------------------------------------
       NWT REQUIRED            9 OUTER ITERATIONS 
       AND A TOTAL OF         14 INNER ITERATIONS.
    ------------------------------------------------

 NO OUTPUT CONTROL FOR STRESS PERIOD    9   TIME STEP   11
 
 SOLVING FOR HEAD 
                                                   Max.-Head-Change                         Max.-Flux-Residual
  Residual-Control   Outer-Iter.   Inner-Iter.     Column Row Layer    Maximum-Head-Change  Column Row Layer    Maximum-Flux-Residual          L2-NORM 
          0                 1           2             6   13     1      -0.9959574574E-02       6   13    1        -0.5315704492E+00      0.1698091251E+01
          0                 2           2             1    2     1       0.2323362767E-02       3    2    1         0.6209808838E-01      0.3944007003E+00
          0                 3           2             1    2     1       0.1043371236E-02       1    2    1         0.2711701387E-01      0.1450608573E+00
          0                 4           2             1    2     1       0.4684419473E-03       1    2    1         0.1217658596E-01      0.6279327666E-01
          0                 5           2             1    2     1       0.2102964086E-03       1    2    1         0.5466729797E-02      0.2797047223E-01
          0                 6           1             1    2     1       0.9440435503E-04       1    2    1         0.2454131934E-02      0.1251384797E-01
          0                 7           1             1    2     1       0.4237854156E-04       1    2    1         0.1101680924E-02      0.5602603053E-02
          0                 8           1             1    2     1       0.1902381262E-04       1    2    1         0.4945485429E-03      0.2508748792E-02
          0                 9           1             1    2     1       0.8539809221E-05       1    2    1         0.2220036631E-03      0.1123456191E-02

    ------------------------------------------------
       NWT REQUIRED            9 OUTER ITERATIONS 
       AND A TOTAL OF         14 INNER ITERATIONS.
    ------------------------------------------------

 NO OUTPUT CONTROL FOR STRESS PERIOD    9   TIME STEP   12
 
 SOLVING FOR HEAD 
                                                   Max.-Head-Change                         Max.-Flux-Residual
  Residual-Control   Outer-Iter.   Inner-Iter.     Column Row Layer    Maximum-Head-Change  Column Row Layer    Maximum-Flux-Residual          L2-NORM 
          0                 1           2             6   13     1      -0.9712669980E-02       6   13    1        -0.5184060467E+00      0.1683794473E+01
          0                 2           2             1    2     1       0.2320890899E-02       3    2    1         0.6184966682E-01      0.3933370106E+00
          0                 3           2             1    2     1       0.1042261624E-02       1    2    1         0.2708817129E-01      0.1448311454E+00
          0                 4           2             1    2     1       0.4679436458E-03       1    2    1         0.1216363670E-01      0.6269649992E-01
          0                 5           2             1    2     1       0.2100725985E-03       1    2    1         0.5460914250E-02      0.2792743891E-01
          0                 6           1             1    2     1       0.9430382565E-04       1    2    1         0.2451519844E-02      0.1249466748E-01
          0                 7           1             1    2     1       0.4233338526E-04       1    2    1         0.1100507635E-02      0.5594052057E-02
          0                 8           1             1    2     1       0.1900352936E-04       1    2    1         0.4940215254E-03      0.2504937844E-02
          0                 9           1             1    2     1       0.8530698176E-05       1    2    1         0.2217669347E-03      0.1121760416E-02

    ------------------------------------------------
       NWT REQUIRED            9 OUTER ITERATIONS 
       AND A TOTAL OF         14 INNER ITERATIONS.
    ------------------------------------------------

 NO OUTPUT CONTROL FOR STRESS PERIOD    9   TIME STEP   13
 
 SOLVING FOR HEAD 
                                                   Max.-Head-Change                         Max.-Flux-Residual
  Residual-Control   Outer-Iter.   Inner-Iter.     Column Row Layer    Maximum-Head-Change  Column Row Layer    Maximum-Flux-Residual          L2-NORM 
          0                 1           2             6   13     1      -0.9471991328E-02       6   13    1        -0.5055629700E+00      0.1670463945E+01
          0                 2           2             1    2     1       0.2318415101E-02       3    2    1         0.6160673218E-01      0.3923290324E+00
          0                 3           2             1    2     1       0.1041150237E-02       1    2    1         0.2705928275E-01      0.1446053084E+00
          0                 4           2             1    2     1       0.4674445462E-03       1    2    1         0.1215066673E-01      0.6260067931E-01
          0                 5           2             1    2     1       0.2098484299E-03       1    2    1         0.5455089395E-02      0.2788478558E-01
          0                 6           1             1    2     1       0.9420313594E-04       1    2    1         0.2448903585E-02      0.1247565026E-01
          0                 7           1             1    2     1       0.4228815743E-04       1    2    1         0.1099332477E-02      0.5585571963E-02
          0                 8           1             1    2     1       0.1898321384E-04       1    2    1         0.4934936630E-03      0.2501153961E-02
          0                 9           1             1    2     1       0.8521572875E-05       1    2    1         0.2215298247E-03      0.1120068606E-02

    ------------------------------------------------
       NWT REQUIRED            9 OUTER ITERATIONS 
       AND A TOTAL OF         14 INNER ITERATIONS.
    ------------------------------------------------

 NO OUTPUT CONTROL FOR STRESS PERIOD    9   TIME STEP   14
 
 SOLVING FOR HEAD 
                                                   Max.-Head-Change                         Max.-Flux-Residual
  Residual-Control   Outer-Iter.   Inner-Iter.     Column Row Layer    Maximum-Head-Change  Column Row Layer    Maximum-Flux-Residual          L2-NORM 
          0                 1           2             6   13     1      -0.9237231881E-02       6   13    1        -0.4930473880E+00      0.1657905924E+01
          0                 2           2             1    2     1       0.2315976552E-02       3    2    1         0.6136833460E-01      0.3913526561E+00
          0                 3           2             1    2     1       0.1040055560E-02       1    2    1         0.2703082877E-01      0.1443818455E+00
          0                 4           2             1    2     1       0.4669529474E-03       1    2    1         0.1213789174E-01      0.6250583649E-01
          0                 5           2             1    2     1       0.2096276294E-03       1    2    1         0.5449352076E-02      0.2784257315E-01
          0                 6           1             1    2     1       0.9410395791E-04       1    2    1         0.2446326624E-02      0.1245682885E-01
          0                 7           1             1    2     1       0.4224360840E-04       1    2    1         0.1098174965E-02      0.5577178560E-02
          0                 8           1             1    2     1       0.1896320321E-04       1    2    1         0.4929737254E-03      0.2497410330E-02
          0                 9           1             1    2     1       0.8512583884E-05       1    2    1         0.2212962700E-03      0.1118398706E-02

    ------------------------------------------------
       NWT REQUIRED            9 OUTER ITERATIONS 
       AND A TOTAL OF         14 INNER ITERATIONS.
    ------------------------------------------------

 OUTPUT CONTROL FOR STRESS PERIOD    9   TIME STEP   15
    PRINT BUDGET
    PRINT HEAD FOR ALL LAYERS
    SAVE HEAD FOR ALL LAYERS
    SAVE BUDGET
 UBUDSV SAVING "         STORAGE" ON UNIT102 AT TIME STEP    15, STRESS PERIOD    9
 UBUDSV SAVING "   CONSTANT HEAD" ON UNIT102 AT TIME STEP    15, STRESS PERIOD    9
 UBUDSV SAVING "FLOW RIGHT FACE " ON UNIT102 AT TIME STEP    15, STRESS PERIOD    9
 UBUDSV SAVING "FLOW FRONT FACE " ON UNIT102 AT TIME STEP    15, STRESS PERIOD    9

  HEAD DEP BOUNDS   PERIOD    9   STEP    15
 BOUNDARY      1   LAYER   1   ROW    13   COL     1   RATE   -0.273460    
 BOUNDARY      2   LAYER   1   ROW    14   COL     9   RATE    0.273814    



 STREAM LISTING     PERIOD      9   STEP       15

 LAYER ROW COL. STREAM  RCH.  FLOW INTO     FLOW TO   FLOW OUT OF   OVRLND.     DIRECT     STREAM       STREAM     STREAM     STREAM   STREAMBED  STREAMBED
                SEG.NO.  NO.  STRM. RCH.    AQUIFER    STRM. RCH.    RUNOFF     PRECIP       ET          HEAD       DEPTH      WIDTH   CONDCTNC.   GRADIENT

   1    1    1     1     1    3.5000E+01  2.8629E-01   3.4714E+01  0.000E+00  0.000E+00  0.000E+00  1.09434E+03  1.292E+00  1.482E+01  6.670E-02  1.431E+00
   1    2    2     1     2    3.4714E+01  4.4325E-01   3.4270E+01  0.000E+00  0.000E+00  0.000E+00  1.08935E+03  1.289E+00  1.476E+01  1.033E-01  1.430E+00
   1    3    3     1     3    3.4270E+01  3.7790E-01   3.3893E+01  0.000E+00  0.000E+00  0.000E+00  1.08370E+03  1.286E+00  1.470E+01  8.817E-02  1.429E+00
   1    3    4     1     4    3.3893E+01  3.4789E-01   3.3545E+01  0.000E+00  0.000E+00  0.000E+00  1.07869E+03  1.283E+00  1.464E+01  8.123E-02  1.428E+00
   1    4    5     2     1    3.1545E+01  3.4194E-01   3.1203E+01  0.000E+00  0.000E+00  0.000E+00  1.07332E+03  1.384E+00  1.200E+01  7.800E-02  1.461E+00
   1    5    6     2     2    3.1203E+01  2.6255E-01   3.0940E+01  0.000E+00  0.000E+00  0.000E+00  1.06789E+03  1.376E+00  1.200E+01  6.000E-02  1.459E+00
   1    6    6     2     3    3.0940E+01  2.6213E-01   3.0678E+01  0.000E+00  0.000E+00  0.000E+00  1.06316E+03  1.369E+00  1.200E+01  6.000E-02  1.456E+00
   1    7    6     2     4    3.0678E+01  2.6171E-01   3.0416E+01  0.000E+00  0.000E+00  0.000E+00  1.05844E+03  1.362E+00  1.200E+01  6.000E-02  1.454E+00
   1    8    6     2     5    3.0416E+01  2.6129E-01   3.0155E+01  0.000E+00  0.000E+00  0.000E+00  1.05371E+03  1.355E+00  1.200E+01  6.000E-02  1.452E+00
   1    3    5     3     1    2.0000E+00  2.8252E-01   1.7175E+00  0.000E+00  0.000E+00  0.000E+00  1.07555E+03  1.909E+00  9.636E+00  7.227E-02  1.955E+00
   1    3    6     3     2    1.7175E+00  2.4905E-01   1.4684E+00  0.000E+00  0.000E+00  0.000E+00  1.07264E+03  1.727E+00  8.909E+00  6.682E-02  1.864E+00
   1    3    7     3     3    1.4684E+00  1.9718E-01   1.2712E+00  0.000E+00  0.000E+00  0.000E+00  1.06987E+03  1.555E+00  8.218E+00  5.547E-02  1.777E+00
   1    4    8     3     4    1.2712E+00  2.2567E-01   1.0456E+00  0.000E+00  0.000E+00  0.000E+00  1.06682E+03  1.364E+00  7.455E+00  6.709E-02  1.682E+00
   1    5    8     3     5    1.0456E+00  1.5790E-01   8.8768E-01  0.000E+00  0.000E+00  0.000E+00  1.06362E+03  1.164E+00  6.655E+00  4.991E-02  1.582E+00
   1    6    8     3     6    8.8768E-01  5.5980E-02   8.3170E-01  0.000E+00  0.000E+00  0.000E+00  1.06158E+03  1.036E+00  6.145E+00  1.844E-02  1.518E+00
   1    5   10     4     1    1.0000E+01  9.0919E-02   9.9091E+00  0.000E+00  0.000E+00  0.000E+00  1.07836E+03  6.368E-01  1.000E+01  2.500E-02  1.212E+00
   1    5    9     4     2    9.9091E+00  1.8158E-01   9.7275E+00  0.000E+00  0.000E+00  0.000E+00  1.07154E+03  6.315E-01  1.000E+01  5.000E-02  1.211E+00
   1    6    8     4     3    9.7275E+00  1.2689E-01   9.6006E+00  0.000E+00  0.000E+00  0.000E+00  1.06381E+03  6.256E-01  1.000E+01  3.500E-02  1.209E+00
   1    6    8     5     1    1.0432E+01  2.2686E-01   1.0205E+01  0.000E+00  0.000E+00  0.000E+00  1.05868E+03  6.790E-01  1.542E+01  6.166E-02  1.226E+00
   1    7    7     5     2    1.0205E+01  2.7894E-01   9.9265E+00  0.000E+00  0.000E+00  0.000E+00  1.05417E+03  6.732E-01  1.519E+01  7.594E-02  1.224E+00
   1    8    7     5     3    9.9265E+00  1.9221E-01   9.7343E+00  0.000E+00  0.000E+00  0.000E+00  1.04992E+03  6.676E-01  1.497E+01  5.241E-02  1.223E+00
   1    8    6     5     4    9.7343E+00  1.3577E-01   9.5985E+00  0.000E+00  0.000E+00  0.000E+00  1.04691E+03  6.637E-01  1.482E+01  3.706E-02  1.221E+00
   1    9    6     6     1    3.4754E+01  2.6907E-01   3.4485E+01  0.000E+00  0.000E+00  0.000E+00  1.04421E+03  1.484E+00  1.200E+01  6.000E-02  1.495E+00
   1   10    7     6     2    3.4485E+01  2.6865E-01   3.4216E+01  0.000E+00  0.000E+00  0.000E+00  1.03966E+03  1.478E+00  1.200E+01  6.000E-02  1.493E+00
   1   11    7     6     3    3.4216E+01  2.6823E-01   3.3948E+01  0.000E+00  0.000E+00  0.000E+00  1.03511E+03  1.471E+00  1.200E+01  6.000E-02  1.490E+00
   1   12    7     6     4    3.3948E+01  2.6782E-01   3.3680E+01  0.000E+00  0.000E+00  0.000E+00  1.03055E+03  1.464E+00  1.200E+01  6.000E-02  1.488E+00
   1   13    7     6     5    3.3680E+01  1.2511E-02   3.3667E+01  0.000E+00  0.000E+00  0.000E+00  1.02737E+03  1.460E+00  1.200E+01  2.400E-02  1.738E-01
   1   14    9     7     1    1.5000E+02  1.1603E+00   1.4884E+02  0.000E+00  0.000E+00  0.000E+00  1.03987E+03  2.288E+00  5.530E+01  5.593E-01  6.915E-01
   1   13    8     7     2    1.4884E+02  1.6509E+00   1.4719E+02  0.000E+00  0.000E+00  0.000E+00  1.03478E+03  2.281E+00  5.526E+01  6.149E-01  8.950E-01
   1   13    7     7     3    1.4719E+02  1.5883E+00   1.4560E+02  0.000E+00  0.000E+00  0.000E+00  1.02969E+03  2.272E+00  5.522E+01  5.585E-01  9.479E-01
   1   13    6     8     1    1.7927E+02  1.0871E+00   1.7818E+02  0.000E+00  0.000E+00  0.000E+00  1.02488E+03  3.008E+00  4.362E+01  4.445E-01  8.153E-01
   1   13    5     8     2    1.7818E+02  3.2017E-01   1.7786E+02  0.000E+00  0.000E+00  0.000E+00  1.01863E+03  3.004E+00  4.355E+01  4.438E-01  2.405E-01
   1   13    4     8     3    1.7786E+02 -1.6949E+00   1.7956E+02  0.000E+00  0.000E+00  0.000E+00  1.01238E+03  3.008E+00  4.362E+01  4.445E+00 -1.271E-01
   1   13    3     8     4    1.7956E+02 -2.8021E+00   1.8236E+02  0.000E+00  0.000E+00  0.000E+00  1.00615E+03  3.022E+00  4.382E+01  4.466E+00 -2.092E-01
   1   13    2     8     5    1.8236E+02 -1.3095E+00   1.8367E+02  0.000E+00  0.000E+00  0.000E+00  9.99910E+02  3.035E+00  4.401E+01  4.485E+00 -9.734E-02
   1   13    1     8     6    1.8367E+02 -7.5475E-01   1.8442E+02  0.000E+00  0.000E+00  0.000E+00  9.94916E+02  3.041E+00  4.410E+01  2.696E+00 -9.330E-02
   1    6    8     9     1    5.0000E+00  0.0000E+00   5.0000E+00  0.000E+00  0.000E+00  0.000E+00  1.07886E+03  3.555E-01  4.000E+00  0.000E+00  1.119E+00



 UBDSV3 SAVING "     NETRECHARGE" ON UNIT 100 AT TIME STEP    15, STRESS PERIOD   9
 UBDSV3 SAVING "    NETDISCHARGE" ON UNIT 101 AT TIME STEP    15, STRESS PERIOD   9
 UBDSV3 SAVING "           GW ET" ON UNIT  61 AT TIME STEP    15, STRESS PERIOD   9
 UBDSV3 SAVING "    UZF RECHARGE" ON UNIT  61 AT TIME STEP    15, STRESS PERIOD   9
 UBDSV3 SAVING " SURFACE LEAKAGE" ON UNIT  61 AT TIME STEP    15, STRESS PERIOD   9
 UBDSV3 SAVING "       HORT+DUNN" ON UNIT  61 AT TIME STEP    15, STRESS PERIOD   9
 UBDSV3 SAVING "  STORAGE CHANGE" ON UNIT  61 AT TIME STEP    15, STRESS PERIOD   9


UNSATURATED ZONE PACKAGE VOLUMETRIC BUDGET FOR  TIME STEP    15 STRESS PERIOD    9
  ------------------------------------------------------------------------------



     CUMULATIVE VOLUMES      L**3       RATES FOR THIS TIME STEP      L**3/T
     ------------------                 ------------------------

           IN:                                      IN:
           ---                                      ---
        INFILTRATION =    17286394.0683          INFILTRATION =           5.0001

          OUT:                                     OUT:
          ----                                     ----
              UZF ET =   540990979.4496                UZF ET =           5.0001
        UZF RECHARGE =   508059215.1703          UZF RECHARGE =          22.8668

            IN - OUT = -1031763800.5516              IN - OUT =         -22.8668

          STORAGE:                                 STORAGE:
          --------                                 --------
      STORAGE CHANGE = -1031738371.5498        STORAGE CHANGE =         -22.8668

 PERCENT DISCREPANCY IS DIFFERENCE BETWEEN IN-OUT MINUS CHANGE IN STORAGE
 DIVIDED BY THE AVERAGE OF IN AND OUT TIMES 100

 PERCENT DISCREPANCY =          -0.00     PERCENT DISCREPANCY =           0.00






1
              HEAD IN LAYER   1 AT END OF TIME STEP    15 IN STRESS PERIOD    9
  -----------------------------------------------------------------------------

           1       2       3       4       5       6       7       8       9      10
 ...................................................................................
   1  1035.06 1033.25 6999.00 6999.00 6999.00 6999.00 6999.00 6999.00 6999.00 6999.00
   2  1034.40 1033.06 1031.95 6999.00 6999.00 1033.42 1033.62 1033.67 6999.00 6999.00
   3  6999.00 1032.09 1031.60 1031.22 1031.62 1032.26 1032.94 1033.09 6999.00 6999.00
   4  1031.41 1031.30 1030.83 1030.30 1030.26 1030.25 1030.95 1032.20 1032.08 6999.00
   5  1030.95 1030.45 1029.90 1029.43 1029.46 1029.65 1029.76 1030.23 1030.86 1031.29
   6  1030.37 1029.66 1029.02 1028.60 1028.67 1029.00 1029.25 1029.79 1030.67 1031.92
   7  1029.85 1028.65 1028.01 1027.64 1027.78 1028.21 1028.62 1029.14 1030.38 6999.00
   8  6999.00 1027.18 1026.75 1026.49 1026.69 1027.21 1027.64 1028.74 1029.90 6999.00
   9  6999.00 1024.96 1024.89 1024.93 1025.29 1025.97 1026.52 1027.81 1029.37 6999.00
  10  6999.00 1021.93 1022.31 1022.96 1023.72 1024.77 1025.76 1027.35 1029.37 1030.05
  11  6999.00 1017.12 1018.09 1020.35 1021.97 1023.75 1025.40 1027.68 1030.28 6999.00
  12  1003.22 1008.97 1012.70 1016.65 1019.89 1022.93 1025.53 1029.31 1032.76 6999.00
  13   995.20 1000.20 1006.77 1012.76 1017.91 1022.44 1026.85 1032.10 1035.24 6999.00
  14  6999.00 1007.38 1010.15 1014.74 1019.46 1023.90 1028.69 1033.99 1037.79 6999.00
  15  6999.00 6999.00 1014.39 1017.09 1020.53 1023.48 6999.00 6999.00 6999.00 6999.00

 HEAD WILL BE SAVED ON UNIT   62 AT END OF TIME STEP   15, STRESS PERIOD    9
1
  VOLUMETRIC BUDGET FOR ENTIRE MODEL AT END OF TIME STEP   15, STRESS PERIOD   9
  ------------------------------------------------------------------------------

     CUMULATIVE VOLUMES      L**3       RATES FOR THIS TIME STEP      L**3/T
     ------------------                 ------------------------

           IN:                                      IN:
           ---                                      ---
             STORAGE     =    28020352.0000               STORAGE     =           2.6818
       CONSTANT HEAD     =           0.0000         CONSTANT HEAD     =           0.0000
               WELLS     =           0.0000                 WELLS     =           0.0000
     HEAD DEP BOUNDS     =     5491388.0000       HEAD DEP BOUNDS     =           0.2738
      STREAM LEAKAGE     =   235047312.0000        STREAM LEAKAGE     =          12.1394
        UZF RECHARGE     =   508059232.0000          UZF RECHARGE     =          22.8668
               GW ET     =           0.0000                 GW ET     =           0.0000
     SURFACE LEAKAGE     =           0.0000       SURFACE LEAKAGE     =           0.0000
    SUPPLEMENTARY WELLS  =           0.0000      SUPPLEMENTARY WELLS  =           0.0000

                TOTAL IN =   776618240.0000                  TOTAL IN =          37.9619

          OUT:                                     OUT:
          ----                                     ----
             STORAGE     =   509028352.0000               STORAGE     =          20.1091
       CONSTANT HEAD     =           0.0000         CONSTANT HEAD     =           0.0000
               WELLS     =           0.0000                 WELLS     =           0.0000
     HEAD DEP BOUNDS     =     5739430.0000       HEAD DEP BOUNDS     =           0.2735
      STREAM LEAKAGE     =   199716352.0000        STREAM LEAKAGE     =           6.5612
        UZF RECHARGE     =           0.0000          UZF RECHARGE     =           0.0000
               GW ET     =    62014208.0000                 GW ET     =          11.0146
     SURFACE LEAKAGE     =           0.0000       SURFACE LEAKAGE     =           0.0000
    SUPPLEMENTARY WELLS  =       32303.0273      SUPPLEMENTARY WELLS  =           0.0000

               TOTAL OUT =   776530624.0000                 TOTAL OUT =          37.9584

                IN - OUT =       87616.0000                  IN - OUT =       3.4218E-03

     PERCENT DISCREPANCY =           0.01         PERCENT DISCREPANCY =           0.01






         TIME SUMMARY AT END OF TIME STEP   15 IN STRESS PERIOD    9
                    SECONDS     MINUTES      HOURS       DAYS        YEARS
                    -----------------------------------------------------------
   TIME STEP LENGTH  87600.      1460.0      24.333      1.0139     2.77588E-03
 STRESS PERIOD TIME 1.31400E+06  21900.      365.00      15.208     4.16381E-02
         TOTAL TIME 1.97964E+07 3.29940E+05  5499.0      229.12     0.62731    
1
 
 SOLVING FOR HEAD 
                                                   Max.-Head-Change                         Max.-Flux-Residual
  Residual-Control   Outer-Iter.   Inner-Iter.     Column Row Layer    Maximum-Head-Change  Column Row Layer    Maximum-Flux-Residual          L2-NORM 
          0                 1           2             6   13     1      -0.9008347775E-02       6   13    1        -0.4808405267E+00      0.1646410565E+01
          0                 2           2             1    2     1       0.2313554240E-02       3    2    1         0.6113595197E-01      0.3904343382E+00
          0                 3           2             1    2     1       0.1038968159E-02       1    2    1         0.2700256413E-01      0.1441625163E+00
          0                 4           2             1    2     1       0.4664646136E-03       1    2    1         0.1212520164E-01      0.6241228037E-01
          0                 5           2             1    2     1       0.2094082940E-03       1    2    1         0.5443652847E-02      0.2780092403E-01
          0                 6           1             1    2     1       0.9400543842E-04       1    2    1         0.2443766767E-02      0.1243825518E-01
          0                 7           1             1    2     1       0.4219935501E-04       1    2    1         0.1097025134E-02      0.5568894084E-02
          0                 8           1             1    2     1       0.1894332488E-04       1    2    1         0.4924572387E-03      0.2493714574E-02
          0                 9           1             1    2     1       0.8503654920E-05       1    2    1         0.2210642747E-03      0.1116750487E-02

    ------------------------------------------------
       NWT REQUIRED            9 OUTER ITERATIONS 
       AND A TOTAL OF         14 INNER ITERATIONS.
    ------------------------------------------------

 NO OUTPUT CONTROL FOR STRESS PERIOD    9   TIME STEP   16
 
 SOLVING FOR HEAD 
                                                   Max.-Head-Change                         Max.-Flux-Residual
  Residual-Control   Outer-Iter.   Inner-Iter.     Column Row Layer    Maximum-Head-Change  Column Row Layer    Maximum-Flux-Residual          L2-NORM 
          0                 1           2             6   13     1      -0.8785502208E-02       6   13    1        -0.4689334816E+00      0.1635664757E+01
          0                 2           2             1    2     1       0.2311127210E-02       3    2    1         0.6090785601E-01      0.3895454226E+00
          0                 3           2             1    2     1       0.1037878628E-02       1    2    1         0.2697424430E-01      0.1439455316E+00
          0                 4           2             1    2     1       0.4659753214E-03       1    2    1         0.1211248666E-01      0.6231973555E-01
          0                 5           2             1    2     1       0.2091885292E-03       1    2    1         0.5437942439E-02      0.2775973002E-01
          0                 6           1             1    2     1       0.9390672584E-04       1    2    1         0.2441201886E-02      0.1241988394E-01
          0                 7           1             1    2     1       0.4215501482E-04       1    2    1         0.1095873042E-02      0.5560699327E-02
          0                 8           1             1    2     1       0.1892340754E-04       1    2    1         0.4919397341E-03      0.2490058639E-02
          0                 9           1             1    2     1       0.8494708197E-05       1    2    1         0.2208318196E-03      0.1115118419E-02

    ------------------------------------------------
       NWT REQUIRED            9 OUTER ITERATIONS 
       AND A TOTAL OF         14 INNER ITERATIONS.
    ------------------------------------------------

 NO OUTPUT CONTROL FOR STRESS PERIOD    9   TIME STEP   17
 
 SOLVING FOR HEAD 
                                                   Max.-Head-Change                         Max.-Flux-Residual
  Residual-Control   Outer-Iter.   Inner-Iter.     Column Row Layer    Maximum-Head-Change  Column Row Layer    Maximum-Flux-Residual          L2-NORM 
          0                 1           2             6   13     1      -0.8568408245E-02       6   13    1        -0.4573462826E+00      0.1625455883E+01
          0                 2           2             1    2     1       0.2308736718E-02       3    2    1         0.6068392872E-01      0.3886986127E+00
          0                 3           2             1    2     1       0.1036805489E-02       1    2    1         0.2694635075E-01      0.1437344365E+00
          0                 4           2             1    2     1       0.4654933874E-03       1    2    1         0.1209996295E-01      0.6222865959E-01
          0                 5           2             1    2     1       0.2089720671E-03       1    2    1         0.5432317893E-02      0.2771893818E-01
          0                 6           1             1    2     1       0.9380949617E-04       1    2    1         0.2438675562E-02      0.1240161948E-01
          0                 7           1             1    2     1       0.4211134068E-04       1    2    1         0.1094738273E-02      0.5552530940E-02
          0                 8           1             1    2     1       0.1890379008E-04       1    2    1         0.4914300163E-03      0.2486409086E-02
          0                 9           1             1    2     1       0.8485896535E-05       1    2    1         0.2206028592E-03      0.1113487470E-02

    ------------------------------------------------
       NWT REQUIRED            9 OUTER ITERATIONS 
       AND A TOTAL OF         14 INNER ITERATIONS.
    ------------------------------------------------

 NO OUTPUT CONTROL FOR STRESS PERIOD    9   TIME STEP   18
 
 SOLVING FOR HEAD 
                                                   Max.-Head-Change                         Max.-Flux-Residual
  Residual-Control   Outer-Iter.   Inner-Iter.     Column Row Layer    Maximum-Head-Change  Column Row Layer    Maximum-Flux-Residual          L2-NORM 
          0                 1           2             6   13     1      -0.8356874798E-02       6   13    1        -0.4460569898E+00      0.1616003554E+01
          0                 2           2             1    2     1       0.2306341027E-02       3    2    1         0.6046565553E-01      0.3879327850E+00
          0                 3           2             1    2     1       0.1035730003E-02       1    2    1         0.2691839640E-01      0.1435459838E+00
          0                 4           2             1    2     1       0.4650103983E-03       1    2    1         0.1208741185E-01      0.6214562514E-01
          0                 5           2             1    2     1       0.2087551320E-03       1    2    1         0.5426681038E-02      0.2768091890E-01
          0                 6           1             1    2     1       0.9371205416E-04       1    2    1         0.2436143708E-02      0.1238428778E-01
          0                 7           1             1    2     1       0.4206757125E-04       1    2    1         0.1093601017E-02      0.5544667136E-02
          0                 8           1             1    2     1       0.1888412910E-04       1    2    1         0.4909191769E-03      0.2482853262E-02
          0                 9           1             1    2     1       0.8477065114E-05       1    2    1         0.2203734005E-03      0.1111910151E-02

    ------------------------------------------------
       NWT REQUIRED            9 OUTER ITERATIONS 
       AND A TOTAL OF         14 INNER ITERATIONS.
    ------------------------------------------------

 NO OUTPUT CONTROL FOR STRESS PERIOD    9   TIME STEP   19
 
 SOLVING FOR HEAD 
                                                   Max.-Head-Change                         Max.-Flux-Residual
  Residual-Control   Outer-Iter.   Inner-Iter.     Column Row Layer    Maximum-Head-Change  Column Row Layer    Maximum-Flux-Residual          L2-NORM 
          0                 1           2             6   13     1      -0.8150929893E-02       6   13    1        -0.4350549090E+00      0.1607156855E+01
          0                 2           2             1    2     1       0.2303960751E-02       3    2    1         0.6025132336E-01      0.3871376027E+00
          0                 3           2             1    2     1       0.1034661429E-02       1    2    1         0.2689062184E-01      0.1433338857E+00
          0                 4           2             1    2     1       0.4645305114E-03       1    2    1         0.1207494139E-01      0.6205433859E-01
          0                 5           2             1    2     1       0.2085395896E-03       1    2    1         0.5421080388E-02      0.2764029277E-01
          0                 6           1             1    2     1       0.9361523793E-04       1    2    1         0.2433628116E-02      0.1236617856E-01
          0                 7           1             1    2     1       0.4202408269E-04       1    2    1         0.1092471063E-02      0.5536592382E-02
          0                 8           1             1    2     1       0.1886459468E-04       1    2    1         0.4904116185E-03      0.2479251644E-02
          0                 9           1             1    2     1       0.8468290469E-05       1    2    1         0.2201454097E-03      0.1110278405E-02

    ------------------------------------------------
       NWT REQUIRED            9 OUTER ITERATIONS 
       AND A TOTAL OF         14 INNER ITERATIONS.
    ------------------------------------------------

 NO OUTPUT CONTROL FOR STRESS PERIOD    9   TIME STEP   20
 
 SOLVING FOR HEAD 
                                                   Max.-Head-Change                         Max.-Flux-Residual
  Residual-Control   Outer-Iter.   Inner-Iter.     Column Row Layer    Maximum-Head-Change  Column Row Layer    Maximum-Flux-Residual          L2-NORM 
          0                 1           2             6   13     1      -0.7950450847E-02       6   13    1        -0.4243364623E+00      0.1598754676E+01
          0                 2           2             1    2     1       0.2301595670E-02       3    2    1         0.6004161489E-01      0.3863744691E+00
          0                 3           2             1    2     1       0.1033599667E-02       1    2    1         0.2686302451E-01      0.1431256962E+00
          0                 4           2             1    2     1       0.4640536817E-03       1    2    1         0.1206255041E-01      0.6196432146E-01
          0                 5           2             1    2     1       0.2083254198E-03       1    2    1         0.5415515407E-02      0.2760019811E-01
          0                 6           1             1    2     1       0.9351903747E-04       1    2    1         0.2431128531E-02      0.1234830223E-01
          0                 7           1             1    2     1       0.4198087100E-04       1    2    1         0.1091348303E-02      0.5528619917E-02
          0                 8           1             1    2     1       0.1884518456E-04       1    2    1         0.4899072899E-03      0.2475695147E-02
          0                 9           1             1    2     1       0.8459571598E-05       1    2    1         0.2199188709E-03      0.1108691156E-02

    ------------------------------------------------
       NWT REQUIRED            9 OUTER ITERATIONS 
       AND A TOTAL OF         14 INNER ITERATIONS.
    ------------------------------------------------

 NO OUTPUT CONTROL FOR STRESS PERIOD    9   TIME STEP   21
 
 SOLVING FOR HEAD 
                                                   Max.-Head-Change                         Max.-Flux-Residual
  Residual-Control   Outer-Iter.   Inner-Iter.     Column Row Layer    Maximum-Head-Change  Column Row Layer    Maximum-Flux-Residual          L2-NORM 
          0                 1           2             6   13     1      -0.7755325398E-02       6   13    1        -0.4139174634E+00      0.1590678074E+01
          0                 2           2             1    2     1       0.2299266285E-02       3    2    1         0.5983562255E-01      0.3856225471E+00
          0                 3           2             1    2     1       0.1032553919E-02       1    2    1         0.2683584362E-01      0.1429186255E+00
          0                 4           2             1    2     1       0.4635840405E-03       1    2    1         0.1205034630E-01      0.6187483025E-01
          0                 5           2             1    2     1       0.2081144769E-03       1    2    1         0.5410034308E-02      0.2756034656E-01
          0                 6           1             1    2     1       0.9342428640E-04       1    2    1         0.2428666615E-02      0.1233053398E-01
          0                 7           1             1    2     1       0.4193831011E-04       1    2    1         0.1090242451E-02      0.5520695401E-02
          0                 8           1             1    2     1       0.1882606657E-04       1    2    1         0.4894105498E-03      0.2472159776E-02
          0                 9           1             1    2     1       0.8450983785E-05       1    2    1         0.2196957371E-03      0.1107113754E-02

    ------------------------------------------------
       NWT REQUIRED            9 OUTER ITERATIONS 
       AND A TOTAL OF         14 INNER ITERATIONS.
    ------------------------------------------------

 NO OUTPUT CONTROL FOR STRESS PERIOD    9   TIME STEP   22
 
 SOLVING FOR HEAD 
                                                   Max.-Head-Change                         Max.-Flux-Residual
  Residual-Control   Outer-Iter.   Inner-Iter.     Column Row Layer    Maximum-Head-Change  Column Row Layer    Maximum-Flux-Residual          L2-NORM 
          0                 1           2             6   13     1      -0.7565259469E-02       6   13    1        -0.4037662550E+00      0.1583209524E+01
          0                 2           2             1    2     1       0.2296930833E-02       1    2    1         0.5967243571E-01      0.3849064981E+00
          0                 3           2             1    2     1       0.1031505436E-02       1    2    1         0.2680859182E-01      0.1427153437E+00
          0                 4           2             1    2     1       0.4631131694E-03       1    2    1         0.1203811026E-01      0.6178671968E-01
          0                 5           2             1    2     1       0.2079029827E-03       1    2    1         0.5404538874E-02      0.2752111873E-01
          0                 6           1             1    2     1       0.9332928772E-04       1    2    1         0.2426198259E-02      0.1231304258E-01
          0                 7           1             1    2     1       0.4189563791E-04       1    2    1         0.1089133710E-02      0.5512892725E-02
          0                 8           1             1    2     1       0.1880689831E-04       1    2    1         0.4889125163E-03      0.2468678088E-02
          0                 9           1             1    2     1       0.8442373712E-05       1    2    1         0.2194720266E-03      0.1105559805E-02

    ------------------------------------------------
       NWT REQUIRED            9 OUTER ITERATIONS 
       AND A TOTAL OF         14 INNER ITERATIONS.
    ------------------------------------------------

 NO OUTPUT CONTROL FOR STRESS PERIOD    9   TIME STEP   23
 
 SOLVING FOR HEAD 
                                                   Max.-Head-Change                         Max.-Flux-Residual
  Residual-Control   Outer-Iter.   Inner-Iter.     Column Row Layer    Maximum-Head-Change  Column Row Layer    Maximum-Flux-Residual          L2-NORM 
          0                 1           2             6   13     1      -0.7380454468E-02       6   13    1        -0.3938780872E+00      0.1576171141E+01
          0                 2           2             1    2     1       0.2294609918E-02       1    2    1         0.5961207776E-01      0.3842057379E+00
          0                 3           2             1    2     1       0.1030463469E-02       1    2    1         0.2678150955E-01      0.1425121750E+00
          0                 4           2             1    2     1       0.4626452227E-03       1    2    1         0.1202595023E-01      0.6169864249E-01
          0                 5           2             1    2     1       0.2076928009E-03       1    2    1         0.5399077554E-02      0.2748187251E-01
          0                 6           1             1    2     1       0.9323487856E-04       1    2    1         0.2423745225E-02      0.1229553797E-01
          0                 7           1             1    2     1       0.4185323033E-04       1    2    1         0.1088031852E-02      0.5505084183E-02
          0                 8           1             1    2     1       0.1878784961E-04       1    2    1         0.4884175747E-03      0.2465193674E-02
          0                 9           1             1    2     1       0.8433817163E-05       1    2    1         0.2192497026E-03      0.1104004441E-02

    ------------------------------------------------
       NWT REQUIRED            9 OUTER ITERATIONS 
       AND A TOTAL OF         14 INNER ITERATIONS.
    ------------------------------------------------

 NO OUTPUT CONTROL FOR STRESS PERIOD    9   TIME STEP   24
 
 SOLVING FOR HEAD 
                                                   Max.-Head-Change                         Max.-Flux-Residual
  Residual-Control   Outer-Iter.   Inner-Iter.     Column Row Layer    Maximum-Head-Change  Column Row Layer    Maximum-Flux-Residual          L2-NORM 
          0                 1           2             6   13     1      -0.7200588877E-02       6   13    1        -0.3842639695E+00      0.1569339975E+01
          0                 2           2             1    2     1       0.2292282581E-02       1    2    1         0.5955155398E-01      0.3835233458E+00
          0                 3           2             1    2     1       0.1029418608E-02       1    2    1         0.2675435222E-01      0.1423119867E+00
          0                 4           2             1    2     1       0.4621759756E-03       1    2    1         0.1201375642E-01      0.6161152932E-01
          0                 5           2             1    2     1       0.2074820353E-03       1    2    1         0.5393601055E-02      0.2744304393E-01
          0                 6           1             1    2     1       0.9314020703E-04       1    2    1         0.2421285371E-02      0.1227821758E-01
          0                 7           1             1    2     1       0.4181070520E-04       1    2    1         0.1086926929E-02      0.5497356107E-02
          0                 8           1             1    2     1       0.1876874763E-04       1    2    1         0.4879212577E-03      0.2461744870E-02
          0                 9           1             1    2     1       0.8425236854E-05       1    2    1         0.2190267628E-03      0.1102464977E-02

    ------------------------------------------------
       NWT REQUIRED            9 OUTER ITERATIONS 
       AND A TOTAL OF         14 INNER ITERATIONS.
    ------------------------------------------------

 NO OUTPUT CONTROL FOR STRESS PERIOD    9   TIME STEP   25
 
 SOLVING FOR HEAD 
                                                   Max.-Head-Change                         Max.-Flux-Residual
  Residual-Control   Outer-Iter.   Inner-Iter.     Column Row Layer    Maximum-Head-Change  Column Row Layer    Maximum-Flux-Residual          L2-NORM 
          0                 1           2             6   13     1      -0.7025424723E-02       6   13    1        -0.3749062509E+00      0.1562830068E+01
          0                 2           2             1    2     1       0.2289990204E-02       1    2    1         0.5949193997E-01      0.3828534332E+00
          0                 3           2             1    2     1       0.1028389433E-02       1    2    1         0.2672760277E-01      0.1421142199E+00
          0                 4           2             1    2     1       0.4617137696E-03       1    2    1         0.1200174565E-01      0.6152567971E-01
          0                 5           2             1    2     1       0.2072744309E-03       1    2    1         0.5388206723E-02      0.2740479898E-01
          0                 6           1             1    2     1       0.9304695487E-04       1    2    1         0.2418862414E-02      0.1226115663E-01
          0                 7           1             1    2     1       0.4176881786E-04       1    2    1         0.1085838582E-02      0.5489742870E-02
          0                 8           1             1    2     1       0.1874993202E-04       1    2    1         0.4874323792E-03      0.2458346627E-02
          0                 9           1             1    2     1       0.8416784851E-05       1    2    1         0.2188071619E-03      0.1100947733E-02

    ------------------------------------------------
       NWT REQUIRED            9 OUTER ITERATIONS 
       AND A TOTAL OF         14 INNER ITERATIONS.
    ------------------------------------------------

 NO OUTPUT CONTROL FOR STRESS PERIOD    9   TIME STEP   26
 
 SOLVING FOR HEAD 
                                                   Max.-Head-Change                         Max.-Flux-Residual
  Residual-Control   Outer-Iter.   Inner-Iter.     Column Row Layer    Maximum-Head-Change  Column Row Layer    Maximum-Flux-Residual          L2-NORM 
          0                 1           2             6   13     1      -0.6855002300E-02       6   13    1        -0.3657963344E+00      0.1556850170E+01
          0                 2           2             1    2     1       0.2287711810E-02       1    2    1         0.5943269016E-01      0.3822261715E+00
          0                 3           2             1    2     1       0.1027366528E-02       1    2    1         0.2670101643E-01      0.1419224515E+00
          0                 4           2             1    2     1       0.4612543787E-03       1    2    1         0.1198980805E-01      0.6144140994E-01
          0                 5           2             1    2     1       0.2070680908E-03       1    2    1         0.5382845246E-02      0.2736702841E-01
          0                 6           1             1    2     1       0.9295427047E-04       1    2    1         0.2416454206E-02      0.1224423916E-01
          0                 7           1             1    2     1       0.4172718487E-04       1    2    1         0.1084756851E-02      0.5482172000E-02
          0                 8           1             1    2     1       0.1873123097E-04       1    2    1         0.4869464788E-03      0.2454960398E-02
          0                 9           1             1    2     1       0.8408384622E-05       1    2    1         0.2185888985E-03      0.1099433690E-02

    ------------------------------------------------
       NWT REQUIRED            9 OUTER ITERATIONS 
       AND A TOTAL OF         14 INNER ITERATIONS.
    ------------------------------------------------

 NO OUTPUT CONTROL FOR STRESS PERIOD    9   TIME STEP   27
 
 SOLVING FOR HEAD 
                                                   Max.-Head-Change                         Max.-Flux-Residual
  Residual-Control   Outer-Iter.   Inner-Iter.     Column Row Layer    Maximum-Head-Change  Column Row Layer    Maximum-Flux-Residual          L2-NORM 
          0                 1           2             6   13     1      -0.6689327563E-02       6   13    1        -0.3569255347E+00      0.1551085372E+01
          0                 2           2             1    2     1       0.2285447196E-02       1    2    1         0.5937379955E-01      0.3816095255E+00
          0                 3           2             1    2     1       0.1026349802E-02       1    2    1         0.2667459080E-01      0.1417303778E+00
          0                 4           2             1    2     1       0.4607977594E-03       1    2    1         0.1197794252E-01      0.6135714314E-01
          0                 5           2             1    2     1       0.2068629947E-03       1    2    1         0.5377516116E-02      0.2732938990E-01
          0                 6           1             1    2     1       0.9286214532E-04       1    2    1         0.2414060528E-02      0.1222742570E-01
          0                 7           1             1    2     1       0.4168580300E-04       1    2    1         0.1083681646E-02      0.5474661556E-02
          0                 8           1             1    2     1       0.1871264247E-04       1    2    1         0.4864635091E-03      0.2451605253E-02
          0                 9           1             1    2     1       0.8400034915E-05       1    2    1         0.2183719546E-03      0.1097935144E-02

    ------------------------------------------------
       NWT REQUIRED            9 OUTER ITERATIONS 
       AND A TOTAL OF         14 INNER ITERATIONS.
    ------------------------------------------------

 NO OUTPUT CONTROL FOR STRESS PERIOD    9   TIME STEP   28
 
 SOLVING FOR HEAD 
                                                   Max.-Head-Change                         Max.-Flux-Residual
  Residual-Control   Outer-Iter.   Inner-Iter.     Column Row Layer    Maximum-Head-Change  Column Row Layer    Maximum-Flux-Residual          L2-NORM 
          0                 1           2             6   13     1      -0.6866921830E-02       6   13    1        -0.3665020631E+00      0.1556112541E+01
          0                 2           2             1    2     1       0.2282778347E-02       1    2    1         0.5930687952E-01      0.3800338469E+00
          0                 3           2             1    2     1       0.1025125531E-02       1    2    1         0.2664319984E-01      0.1413824161E+00
          0                 4           2             1    2     1       0.4602434491E-03       1    2    1         0.1196361200E-01      0.6125482412E-01
          0                 5           2             1    2     1       0.2066132606E-03       1    2    1         0.5371039499E-02      0.2728791927E-01
          0                 6           1             1    2     1       0.9274984496E-04       1    2    1         0.2411144625E-02      0.1220923108E-01
          0                 7           1             1    2     1       0.4163534110E-04       1    2    1         0.1082370778E-02      0.5466570322E-02
          0                 8           1             1    2     1       0.1868997390E-04       1    2    1         0.4858745266E-03      0.2447998575E-02
          0                 9           1             1    2     1       0.8389852394E-05       1    2    1         0.2181073742E-03      0.1096326249E-02

    ------------------------------------------------
       NWT REQUIRED            9 OUTER ITERATIONS 
       AND A TOTAL OF         14 INNER ITERATIONS.
    ------------------------------------------------

 NO OUTPUT CONTROL FOR STRESS PERIOD    9   TIME STEP   29
 
 SOLVING FOR HEAD 
                                                   Max.-Head-Change                         Max.-Flux-Residual
  Residual-Control   Outer-Iter.   Inner-Iter.     Column Row Layer    Maximum-Head-Change  Column Row Layer    Maximum-Flux-Residual          L2-NORM 
          0                 1           2             6   13     1      -0.7666290389E-02       6   13    1        -0.4094321945E+00      0.1647255163E+01
          0                 2           2             1    2     1       0.2278867743E-02       1    2    1         0.5921360242E-01      0.3792675446E+00
          0                 3           2             1    2     1       0.1023281510E-02       1    2    1         0.2659672526E-01      0.1407742646E+00
          0                 4           2             1    2     1       0.4594001202E-03       1    2    1         0.1194194636E-01      0.6111044297E-01
          0                 5           2             1    2     1       0.2062319083E-03       1    2    1         0.5361172257E-02      0.2723528376E-01
          0                 6           1             1    2     1       0.9257813523E-04       1    2    1         0.2406689675E-02      0.1218663793E-01
          0                 7           1             1    2     1       0.4155815308E-04       1    2    1         0.1080366072E-02      0.5456571569E-02
          0                 8           1             1    2     1       0.1865529751E-04       1    2    1         0.4849735691E-03      0.2443551937E-02
          0                 9           1             1    2     1       0.8374278480E-05       1    2    1         0.2177026704E-03      0.1094346891E-02

    ------------------------------------------------
       NWT REQUIRED            9 OUTER ITERATIONS 
       AND A TOTAL OF         14 INNER ITERATIONS.
    ------------------------------------------------

 NO OUTPUT CONTROL FOR STRESS PERIOD    9   TIME STEP   30



 STREAM LISTING     PERIOD      9   STEP       30

 LAYER ROW COL. STREAM  RCH.  FLOW INTO     FLOW TO   FLOW OUT OF   OVRLND.     DIRECT     STREAM       STREAM     STREAM     STREAM   STREAMBED  STREAMBED
                SEG.NO.  NO.  STRM. RCH.    AQUIFER    STRM. RCH.    RUNOFF     PRECIP       ET          HEAD       DEPTH      WIDTH   CONDCTNC.   GRADIENT

   1    1    1     1     1    2.1000E+01  2.2592E-01   2.0774E+01  0.000E+00  0.000E+00  0.000E+00  1.09416E+03  1.115E+00  1.220E+01  5.490E-02  1.372E+00
   1    2    2     1     2    2.0774E+01  3.4916E-01   2.0425E+01  0.000E+00  0.000E+00  0.000E+00  1.08917E+03  1.110E+00  1.214E+01  8.495E-02  1.370E+00
   1    3    3     1     3    2.0425E+01  2.9709E-01   2.0128E+01  0.000E+00  0.000E+00  0.000E+00  1.08352E+03  1.105E+00  1.206E+01  7.238E-02  1.368E+00
   1    3    4     1     4    2.0128E+01  2.7299E-01   1.9855E+01  0.000E+00  0.000E+00  0.000E+00  1.07851E+03  1.100E+00  1.200E+01  6.659E-02  1.367E+00
   1    4    5     2     1    1.7855E+01  3.1056E-01   1.7544E+01  0.000E+00  0.000E+00  0.000E+00  1.07292E+03  9.816E-01  1.200E+01  7.800E-02  1.327E+00
   1    5    6     2     2    1.7544E+01  2.3834E-01   1.7306E+01  0.000E+00  0.000E+00  0.000E+00  1.06748E+03  9.724E-01  1.200E+01  6.000E-02  1.324E+00
   1    6    6     2     3    1.7306E+01  2.3786E-01   1.7068E+01  0.000E+00  0.000E+00  0.000E+00  1.06276E+03  9.644E-01  1.200E+01  6.000E-02  1.321E+00
   1    7    6     2     4    1.7068E+01  2.3738E-01   1.6831E+01  0.000E+00  0.000E+00  0.000E+00  1.05803E+03  9.564E-01  1.200E+01  6.000E-02  1.319E+00
   1    8    6     2     5    1.6831E+01  2.3690E-01   1.6594E+01  0.000E+00  0.000E+00  0.000E+00  1.05331E+03  9.483E-01  1.200E+01  6.000E-02  1.316E+00
   1    3    5     3     1    2.0000E+00  2.8252E-01   1.7175E+00  0.000E+00  0.000E+00  0.000E+00  1.07555E+03  1.909E+00  9.636E+00  7.227E-02  1.955E+00
   1    3    6     3     2    1.7175E+00  2.4905E-01   1.4684E+00  0.000E+00  0.000E+00  0.000E+00  1.07264E+03  1.727E+00  8.909E+00  6.682E-02  1.864E+00
   1    3    7     3     3    1.4684E+00  1.9718E-01   1.2712E+00  0.000E+00  0.000E+00  0.000E+00  1.06987E+03  1.555E+00  8.218E+00  5.547E-02  1.777E+00
   1    4    8     3     4    1.2712E+00  2.2567E-01   1.0456E+00  0.000E+00  0.000E+00  0.000E+00  1.06682E+03  1.364E+00  7.455E+00  6.709E-02  1.682E+00
   1    5    8     3     5    1.0456E+00  1.5790E-01   8.8768E-01  0.000E+00  0.000E+00  0.000E+00  1.06362E+03  1.164E+00  6.655E+00  4.991E-02  1.582E+00
   1    6    8     3     6    8.8768E-01  5.5980E-02   8.3170E-01  0.000E+00  0.000E+00  0.000E+00  1.06158E+03  1.036E+00  6.145E+00  1.844E-02  1.518E+00
   1    5   10     4     1    1.0000E+01  9.0919E-02   9.9091E+00  0.000E+00  0.000E+00  0.000E+00  1.07836E+03  6.368E-01  1.000E+01  2.500E-02  1.212E+00
   1    5    9     4     2    9.9091E+00  1.8158E-01   9.7275E+00  0.000E+00  0.000E+00  0.000E+00  1.07154E+03  6.315E-01  1.000E+01  5.000E-02  1.211E+00
   1    6    8     4     3    9.7275E+00  1.2689E-01   9.6006E+00  0.000E+00  0.000E+00  0.000E+00  1.06381E+03  6.256E-01  1.000E+01  3.500E-02  1.209E+00
   1    6    8     5     1    1.0432E+01  2.2686E-01   1.0205E+01  0.000E+00  0.000E+00  0.000E+00  1.05868E+03  6.790E-01  1.542E+01  6.166E-02  1.226E+00
   1    7    7     5     2    1.0205E+01  2.7894E-01   9.9265E+00  0.000E+00  0.000E+00  0.000E+00  1.05417E+03  6.732E-01  1.519E+01  7.594E-02  1.224E+00
   1    8    7     5     3    9.9265E+00  1.9221E-01   9.7343E+00  0.000E+00  0.000E+00  0.000E+00  1.04992E+03  6.676E-01  1.497E+01  5.241E-02  1.223E+00
   1    8    6     5     4    9.7343E+00  1.3577E-01   9.5985E+00  0.000E+00  0.000E+00  0.000E+00  1.04691E+03  6.637E-01  1.482E+01  3.706E-02  1.221E+00
   1    9    6     6     1    2.1192E+01  2.4612E-01   2.0946E+01  0.000E+00  0.000E+00  0.000E+00  1.04383E+03  1.102E+00  1.200E+01  6.000E-02  1.367E+00
   1   10    7     6     2    2.0946E+01  2.4565E-01   2.0701E+01  0.000E+00  0.000E+00  0.000E+00  1.03928E+03  1.094E+00  1.200E+01  6.000E-02  1.365E+00
   1   11    7     6     3    2.0701E+01  2.4519E-01   2.0455E+01  0.000E+00  0.000E+00  0.000E+00  1.03472E+03  1.086E+00  1.200E+01  6.000E-02  1.362E+00
   1   12    7     6     4    2.0455E+01  2.4472E-01   2.0211E+01  0.000E+00  0.000E+00  0.000E+00  1.03017E+03  1.079E+00  1.200E+01  6.000E-02  1.360E+00
   1   13    7     6     5    2.0211E+01  4.0045E-03   2.0207E+01  0.000E+00  0.000E+00  0.000E+00  1.02698E+03  1.075E+00  1.200E+01  2.400E-02  5.562E-02
   1   14    9     7     1    1.5000E+02  1.1583E+00   1.4884E+02  0.000E+00  0.000E+00  0.000E+00  1.03987E+03  2.288E+00  5.530E+01  5.593E-01  6.903E-01
   1   13    8     7     2    1.4884E+02  1.6694E+00   1.4717E+02  0.000E+00  0.000E+00  0.000E+00  1.03478E+03  2.281E+00  5.526E+01  6.149E-01  9.051E-01
   1   13    7     7     3    1.4717E+02  1.6054E+00   1.4557E+02  0.000E+00  0.000E+00  0.000E+00  1.02969E+03  2.272E+00  5.522E+01  5.585E-01  9.581E-01
   1   13    6     8     1    1.6577E+02  1.0635E+00   1.6471E+02  0.000E+00  0.000E+00  0.000E+00  1.02480E+03  2.921E+00  4.235E+01  4.316E-01  8.214E-01
   1   13    5     8     2    1.6471E+02  3.0587E-01   1.6440E+02  0.000E+00  0.000E+00  0.000E+00  1.01854E+03  2.916E+00  4.229E+01  4.309E-01  2.366E-01
   1   13    4     8     3    1.6440E+02 -1.8883E+00   1.6629E+02  0.000E+00  0.000E+00  0.000E+00  1.01230E+03  2.922E+00  4.236E+01  4.317E+00 -1.458E-01
   1   13    3     8     4    1.6629E+02 -2.9896E+00   1.6928E+02  0.000E+00  0.000E+00  0.000E+00  1.00606E+03  2.938E+00  4.260E+01  4.341E+00 -2.296E-01
   1   13    2     8     5    1.6928E+02 -1.5091E+00   1.7079E+02  0.000E+00  0.000E+00  0.000E+00  9.99827E+02  2.952E+00  4.281E+01  4.363E+00 -1.153E-01
   1   13    1     8     6    1.7079E+02 -8.4260E-01   1.7163E+02  0.000E+00  0.000E+00  0.000E+00  9.94835E+02  2.960E+00  4.292E+01  2.624E+00 -1.070E-01
   1    6    8     9     1    5.0000E+00  0.0000E+00   5.0000E+00  0.000E+00  0.000E+00  0.000E+00  1.07886E+03  3.555E-01  4.000E+00  0.000E+00  1.119E+00





UNSATURATED ZONE PACKAGE VOLUMETRIC BUDGET FOR  TIME STEP    30 STRESS PERIOD    9
  ------------------------------------------------------------------------------



     CUMULATIVE VOLUMES      L**3       RATES FOR THIS TIME STEP      L**3/T
     ------------------                 ------------------------

           IN:                                      IN:
           ---                                      ---
        INFILTRATION =    23856524.8496          INFILTRATION =           5.0001

          OUT:                                     OUT:
          ----                                     ----
              UZF ET =   547561110.2308                UZF ET =           5.0001
        UZF RECHARGE =   537939949.2431          UZF RECHARGE =          22.4986

            IN - OUT = -1061644534.6243              IN - OUT =         -22.4986

          STORAGE:                                 STORAGE:
          --------                                 --------
      STORAGE CHANGE = -1061619105.6099        STORAGE CHANGE =         -22.4986

 PERCENT DISCREPANCY IS DIFFERENCE BETWEEN IN-OUT MINUS CHANGE IN STORAGE
 DIVIDED BY THE AVERAGE OF IN AND OUT TIMES 100

 PERCENT DISCREPANCY =          -0.00     PERCENT DISCREPANCY =           0.00






1
  VOLUMETRIC BUDGET FOR ENTIRE MODEL AT END OF TIME STEP   30, STRESS PERIOD   9
  ------------------------------------------------------------------------------

     CUMULATIVE VOLUMES      L**3       RATES FOR THIS TIME STEP      L**3/T
     ------------------                 ------------------------

           IN:                                      IN:
           ---                                      ---
             STORAGE     =    31039196.0000               STORAGE     =           3.0205
       CONSTANT HEAD     =           0.0000         CONSTANT HEAD     =           0.0000
               WELLS     =           0.0000                 WELLS     =           0.0000
     HEAD DEP BOUNDS     =     5851078.5000       HEAD DEP BOUNDS     =           0.2737
      STREAM LEAKAGE     =   251011536.0000        STREAM LEAKAGE     =          11.5959
        UZF RECHARGE     =   537939904.0000          UZF RECHARGE     =          22.4986
               GW ET     =           0.0000                 GW ET     =           0.0000
     SURFACE LEAKAGE     =           0.0000       SURFACE LEAKAGE     =           0.0000
    SUPPLEMENTARY WELLS  =           0.0000      SUPPLEMENTARY WELLS  =           0.0000

                TOTAL IN =   825841728.0000                  TOTAL IN =          37.3886

          OUT:                                     OUT:
          ----                                     ----
             STORAGE     =   535068448.0000               STORAGE     =          19.0028
       CONSTANT HEAD     =           0.0000         CONSTANT HEAD     =           0.0000
               WELLS     =           0.0000                 WELLS     =           0.0000
     HEAD DEP BOUNDS     =     6097670.0000       HEAD DEP BOUNDS     =           0.2719
      STREAM LEAKAGE     =   208167664.0000        STREAM LEAKAGE     =           7.2296
        UZF RECHARGE     =           0.0000          UZF RECHARGE     =           0.0000
               GW ET     =    76383632.0000                 GW ET     =          10.8809
     SURFACE LEAKAGE     =           0.0000       SURFACE LEAKAGE     =           0.0000
    SUPPLEMENTARY WELLS  =       32303.0273      SUPPLEMENTARY WELLS  =           0.0000

               TOTAL OUT =   825749760.0000                 TOTAL OUT =          37.3853

                IN - OUT =       91968.0000                  IN - OUT =       3.3302E-03

     PERCENT DISCREPANCY =           0.01         PERCENT DISCREPANCY =           0.01






         TIME SUMMARY AT END OF TIME STEP   30 IN STRESS PERIOD    9
                    SECONDS     MINUTES      HOURS       DAYS        YEARS
                    -----------------------------------------------------------
   TIME STEP LENGTH  87600.      1460.0      24.333      1.0139     2.77588E-03
 STRESS PERIOD TIME 2.62800E+06  43800.      730.00      30.417     8.32763E-02
         TOTAL TIME 2.11104E+07 3.51840E+05  5864.0      244.33     0.66895    
1
1
                            STRESS PERIOD NO.   10, LENGTH =   2628000.    
                            -----------------------------------------------

                              NUMBER OF TIME STEPS =    30

                               MULTIPLIER FOR DELT =     1.000

                            INITIAL TIME STEP SIZE =   87600.00    

 WELL NO.  LAYER   ROW   COL   STRESS RATE         
 --------------------------------------------------
      1      1      6      4       0.000    
      2      1      6      7       0.000    
      3      1      7      4       0.000    
      4      1      7      5       0.000    
      5      1      8      4       0.000    
      6      1      8      5       0.000    
      7      1      9      4       0.000    
      8      1      9      5       0.000    
      9      1     10      4       0.000    
     10      1     10      5       0.000    

     10 WELLS

 REUSING NON-PARAMETER GHB CELLS FROM LAST STRESS PERIOD

      2 GHB CELLS

 REUSING STREAM SEGMENT DATA FROM LAST STRESS PERIOD



            AREAL INFILTRATION RATE
 READING ON UNIT   19 WITH FORMAT: (10F4.0)            

            1           2           3           4           5           6           7           8           9          10
 ........................................................................................................................
   1    0.000       0.000       0.000       0.000       0.000       0.000       0.000       0.000       0.000       0.000    
   2    0.000       0.000       0.000       0.000       0.000       0.000       0.000       0.000       0.000       0.000    
   3    0.000       0.000       0.000       0.000       0.000       0.000       0.000       0.000       0.000       0.000    
   4    0.000       0.000       0.000       0.000       0.000       0.000       0.000       0.000       0.000       0.000    
   5    0.000       0.000       0.000       0.000       0.000       0.000       0.000       0.000       0.000       0.000    
   6    0.000       0.000       0.000       0.000       0.000       0.000       0.000       0.000       0.000       0.000    
   7    0.000       0.000       0.000       0.000       0.000       0.000       0.000       0.000       0.000       0.000    
   8    0.000       0.000       0.000       0.000       0.000       0.000       0.000       0.000       0.000       0.000    
   9    0.000       0.000       0.000       0.000       0.000       0.000       0.000       0.000       0.000       0.000    
  10    0.000       0.000       0.000       0.000       0.000       0.000       0.000       0.000       0.000       0.000    
  11    0.000       0.000       0.000       0.000       0.000       0.000       0.000       0.000       0.000       0.000    
  12    0.000       0.000       0.000       0.000       0.000       0.000       0.000       0.000       0.000       0.000    
  13    0.000       0.000       0.000       0.000       0.000       0.000       0.000       0.000       0.000       0.000    
  14    0.000       0.000       0.000       0.000       0.000       0.000       0.000       0.000       0.000       0.000    
  15    0.000       0.000       0.000       0.000       0.000       0.000       0.000       0.000       0.000       0.000    

                  ET RATE =  1.500000E-08

 USING ET EXTINCTION DEPTH FROM PREVIOUS STRESS PERIOD. CURRENT PERIOD IS:      10

 USING EXTINCTION WATER CONTENT FROM PREVIOUS STRESS PERIOD. CURRENT PERIOD IS:      10

 PROCESSING AGO STRESS PERIOD DATA

 READING AGO STRESS PERIOD DATA

 READING IRRIGATION STREAM

 READING IRRIGATION WELL

 READING SUPPLEMENTAL WEL

 END PROCESSING AGO STRESS PERIOD DATA OPTIONS
 
 SOLVING FOR HEAD 
                                                   Max.-Head-Change                         Max.-Flux-Residual
  Residual-Control   Outer-Iter.   Inner-Iter.     Column Row Layer    Maximum-Head-Change  Column Row Layer    Maximum-Flux-Residual          L2-NORM 
          0                 1           2             1   13     1       0.1789897425E-01       1   13    1         0.9740441699E+00      0.2777431996E+01
          0                 2           2             1    2     1       0.2275199695E-02       7   13    1        -0.7886093813E-01      0.3944606725E+00
          0                 3           2             4    6     1      -0.7243296198E-01       4    6    1        -0.3993375190E+01      0.3995858633E+01
          0                 4           2             4    6     1       0.7441199266E-01       4    6    1         0.4140239704E+01      0.4146055779E+01
          0                 5           2             4    6     1      -0.1488928256E-02       4    6    1        -0.8425453381E-01      0.9354014963E-01
          0                 6           2             4    6     1      -0.2706535732E-03       4    6    1        -0.1531715951E-01      0.2021504159E-01
          0                 7           1             3    6     1       0.5916026172E-04       4    6    1        -0.2784031913E-02      0.6323525497E-02
          0                 8           1             3    6     1       0.2647624161E-04       3    6    1         0.7157760459E-03      0.2582046273E-02
          0                 9           1             3    6     1       0.1187787671E-04       3    6    1         0.3205461636E-03      0.1137662931E-02
          0                10           1             3    6     1       0.5333873978E-05       3    6    1         0.1438413434E-03      0.5084252514E-03

    ------------------------------------------------
       NWT REQUIRED           10 OUTER ITERATIONS 
       AND A TOTAL OF         16 INNER ITERATIONS.
    ------------------------------------------------

 NO OUTPUT CONTROL FOR STRESS PERIOD   10   TIME STEP    1
 
 SOLVING FOR HEAD 
                                                   Max.-Head-Change                         Max.-Flux-Residual
  Residual-Control   Outer-Iter.   Inner-Iter.     Column Row Layer    Maximum-Head-Change  Column Row Layer    Maximum-Flux-Residual          L2-NORM 
          0                 1           2             5   13     1       0.1730969537E-01       1   13    1         0.9324668022E+00      0.2664017412E+01
          0                 2           2             1    2     1       0.2271556065E-02       5   13    1        -0.7514418392E-01      0.3929639948E+00
          0                 3           2             1    2     1       0.1020000401E-02       1    2    1         0.2651141686E-01      0.1406527178E+00
          0                 4           2             1    2     1       0.4579270422E-03       1    2    1         0.1190365774E-01      0.6091806508E-01
          0                 5           2             1    2     1       0.2055704414E-03       1    2    1         0.5343981164E-02      0.2714805101E-01
          0                 6           1             1    2     1       0.9228109185E-04       1    2    1         0.2398970047E-02      0.1228313730E-01
          0                 7           1             1    2     1       0.4142475735E-04       4    6    1         0.2073561315E-02      0.5825729920E-02
          0                 8           1             1    2     1       0.1859539191E-04       4    6    1        -0.5788341298E-03      0.2506578354E-02
          0                 9           1             4    6     1       0.2297667395E-04       4    6    1         0.1300586799E-02      0.1705868158E-02
          0                10           2             4    6     1      -0.2039189759E-03       4    6    1        -0.1165908448E-01      0.1166969710E-01
          0                11           1             2   13     1      -0.6865294784E-05       4   13    1        -0.4038184361E-03      0.7986560643E-03

    ------------------------------------------------
       NWT REQUIRED           11 OUTER ITERATIONS 
       AND A TOTAL OF         17 INNER ITERATIONS.
    ------------------------------------------------

 NO OUTPUT CONTROL FOR STRESS PERIOD   10   TIME STEP    2
 
 SOLVING FOR HEAD 
                                                   Max.-Head-Change                         Max.-Flux-Residual
  Residual-Control   Outer-Iter.   Inner-Iter.     Column Row Layer    Maximum-Head-Change  Column Row Layer    Maximum-Flux-Residual          L2-NORM 
          0                 1           2             5   13     1       0.1682546574E-01       5   13    1         0.9002806837E+00      0.2551453646E+01
          0                 2           2             1    2     1       0.2267959296E-02       5   13    1        -0.7268614741E-01      0.3921114022E+00
          0                 3           2             1    2     1       0.1018386337E-02       1    2    1         0.2646945171E-01      0.1405356322E+00
          0                 4           2             1    2     1       0.4572023922E-03       1    2    1         0.1188482252E-01      0.6083233619E-01
          0                 5           2             1    2     1       0.2052450456E-03       1    2    1         0.5335524364E-02      0.2710798435E-01
          0                 6           1             1    2     1       0.9213496722E-04       1    2    1         0.2395172524E-02      0.1213016568E-01
          0                 7           1             1    2     1       0.4135913522E-04       1    2    1         0.1075194044E-02      0.5431587917E-02
          0                 8           1             1    2     1       0.1856592258E-04       1    2    1         0.4826509160E-03      0.2432523581E-02
          0                 9           1             1    2     1       0.8334141160E-05       1    2    1         0.2166595991E-03      0.1089519151E-02

    ------------------------------------------------
       NWT REQUIRED            9 OUTER ITERATIONS 
       AND A TOTAL OF         14 INNER ITERATIONS.
    ------------------------------------------------

 NO OUTPUT CONTROL FOR STRESS PERIOD   10   TIME STEP    3
 
 SOLVING FOR HEAD 
                                                   Max.-Head-Change                         Max.-Flux-Residual
  Residual-Control   Outer-Iter.   Inner-Iter.     Column Row Layer    Maximum-Head-Change  Column Row Layer    Maximum-Flux-Residual          L2-NORM 
          0                 1           2             5   13     1       0.1634988621E-01       5   13    1         0.8751881838E+00      0.2449383170E+01
          0                 2           2             1    2     1       0.2264374324E-02       5   13    1        -0.7023460587E-01      0.3917396547E+00
          0                 3           2             1    2     1       0.1016777547E-02       1    2    1         0.2642762400E-01      0.1403398142E+00
          0                 4           2             1    2     1       0.4564801070E-03       1    2    1         0.1186604882E-01      0.6074420801E-01
          0                 5           2             1    2     1       0.2049207114E-03       1    2    1         0.5327095154E-02      0.2706888265E-01
          0                 6           1             1    2     1       0.9198931881E-04       1    2    1         0.2391387390E-02      0.1211277884E-01
          0                 7           1             1    2     1       0.4129372793E-04       1    2    1         0.1073494246E-02      0.5423854351E-02
          0                 8           1             1    2     1       0.1853654878E-04       1    2    1         0.4818875643E-03      0.2429062322E-02
          0                 9           1             1    2     1       0.8320950053E-05       1    2    1         0.2163167910E-03      0.1087931494E-02

    ------------------------------------------------
       NWT REQUIRED            9 OUTER ITERATIONS 
       AND A TOTAL OF         14 INNER ITERATIONS.
    ------------------------------------------------

 NO OUTPUT CONTROL FOR STRESS PERIOD   10   TIME STEP    4
 
 SOLVING FOR HEAD 
                                                   Max.-Head-Change                         Max.-Flux-Residual
  Residual-Control   Outer-Iter.   Inner-Iter.     Column Row Layer    Maximum-Head-Change  Column Row Layer    Maximum-Flux-Residual          L2-NORM 
          0                 1           2             5   13     1       0.1588346177E-01       5   13    1         0.8505236221E+00      0.2356899302E+01
          0                 2           2             1    2     1       0.2260795459E-02       5   13    1        -0.6784029553E-01      0.3916704886E+00
          0                 3           2             1    2     1       0.1015171480E-02       1    2    1         0.2638586735E-01      0.1401566762E+00
          0                 4           2             1    2     1       0.4557590414E-03       1    2    1         0.1184730686E-01      0.6065825432E-01
          0                 5           2             1    2     1       0.2045969249E-03       1    2    1         0.5318680175E-02      0.2703075928E-01
          0                 6           1             1    2     1       0.9184391675E-04       1    2    1         0.2387608641E-02      0.1209590031E-01
          0                 7           1             1    2     1       0.4122843019E-04       1    2    1         0.1071797309E-02      0.5416378628E-02
          0                 8           1             1    2     1       0.1850722477E-04       1    2    1         0.4811255068E-03      0.2425749849E-02
          0                 9           1             1    2     1       0.8307781206E-05       1    2    1         0.2159745684E-03      0.1086464242E-02

    ------------------------------------------------
       NWT REQUIRED            9 OUTER ITERATIONS 
       AND A TOTAL OF         14 INNER ITERATIONS.
    ------------------------------------------------

 OUTPUT CONTROL FOR STRESS PERIOD   10   TIME STEP    5
    PRINT BUDGET
    SAVE BUDGET
 UBUDSV SAVING "         STORAGE" ON UNIT102 AT TIME STEP     5, STRESS PERIOD   10
 UBUDSV SAVING "   CONSTANT HEAD" ON UNIT102 AT TIME STEP     5, STRESS PERIOD   10
 UBUDSV SAVING "FLOW RIGHT FACE " ON UNIT102 AT TIME STEP     5, STRESS PERIOD   10
 UBUDSV SAVING "FLOW FRONT FACE " ON UNIT102 AT TIME STEP     5, STRESS PERIOD   10

  HEAD DEP BOUNDS   PERIOD   10   STEP     5
 BOUNDARY      1   LAYER   1   ROW    13   COL     1   RATE   -0.274944    
 BOUNDARY      2   LAYER   1   ROW    14   COL     9   RATE    0.273639    



 STREAM LISTING     PERIOD     10   STEP        5

 LAYER ROW COL. STREAM  RCH.  FLOW INTO     FLOW TO   FLOW OUT OF   OVRLND.     DIRECT     STREAM       STREAM     STREAM     STREAM   STREAMBED  STREAMBED
                SEG.NO.  NO.  STRM. RCH.    AQUIFER    STRM. RCH.    RUNOFF     PRECIP       ET          HEAD       DEPTH      WIDTH   CONDCTNC.   GRADIENT

   1    1    1     1     1    2.1000E+01  2.2592E-01   2.0774E+01  0.000E+00  0.000E+00  0.000E+00  1.09416E+03  1.115E+00  1.220E+01  5.490E-02  1.372E+00
   1    2    2     1     2    2.0774E+01  3.4916E-01   2.0425E+01  0.000E+00  0.000E+00  0.000E+00  1.08917E+03  1.110E+00  1.214E+01  8.495E-02  1.370E+00
   1    3    3     1     3    2.0425E+01  2.9709E-01   2.0128E+01  0.000E+00  0.000E+00  0.000E+00  1.08352E+03  1.105E+00  1.206E+01  7.238E-02  1.368E+00
   1    3    4     1     4    2.0128E+01  2.7299E-01   1.9855E+01  0.000E+00  0.000E+00  0.000E+00  1.07851E+03  1.100E+00  1.200E+01  6.659E-02  1.367E+00
   1    4    5     2     1    1.7855E+01  3.1056E-01   1.7544E+01  0.000E+00  0.000E+00  0.000E+00  1.07292E+03  9.816E-01  1.200E+01  7.800E-02  1.327E+00
   1    5    6     2     2    1.7544E+01  2.3834E-01   1.7306E+01  0.000E+00  0.000E+00  0.000E+00  1.06748E+03  9.724E-01  1.200E+01  6.000E-02  1.324E+00
   1    6    6     2     3    1.7306E+01  2.3786E-01   1.7068E+01  0.000E+00  0.000E+00  0.000E+00  1.06276E+03  9.644E-01  1.200E+01  6.000E-02  1.321E+00
   1    7    6     2     4    1.7068E+01  2.3738E-01   1.6831E+01  0.000E+00  0.000E+00  0.000E+00  1.05803E+03  9.564E-01  1.200E+01  6.000E-02  1.319E+00
   1    8    6     2     5    1.6831E+01  2.3690E-01   1.6594E+01  0.000E+00  0.000E+00  0.000E+00  1.05331E+03  9.483E-01  1.200E+01  6.000E-02  1.316E+00
   1    3    5     3     1    2.0000E+00  2.8252E-01   1.7175E+00  0.000E+00  0.000E+00  0.000E+00  1.07555E+03  1.909E+00  9.636E+00  7.227E-02  1.955E+00
   1    3    6     3     2    1.7175E+00  2.4905E-01   1.4684E+00  0.000E+00  0.000E+00  0.000E+00  1.07264E+03  1.727E+00  8.909E+00  6.682E-02  1.864E+00
   1    3    7     3     3    1.4684E+00  1.9718E-01   1.2712E+00  0.000E+00  0.000E+00  0.000E+00  1.06987E+03  1.555E+00  8.218E+00  5.547E-02  1.777E+00
   1    4    8     3     4    1.2712E+00  2.2567E-01   1.0456E+00  0.000E+00  0.000E+00  0.000E+00  1.06682E+03  1.364E+00  7.455E+00  6.709E-02  1.682E+00
   1    5    8     3     5    1.0456E+00  1.5790E-01   8.8768E-01  0.000E+00  0.000E+00  0.000E+00  1.06362E+03  1.164E+00  6.655E+00  4.991E-02  1.582E+00
   1    6    8     3     6    8.8768E-01  5.5980E-02   8.3170E-01  0.000E+00  0.000E+00  0.000E+00  1.06158E+03  1.036E+00  6.145E+00  1.844E-02  1.518E+00
   1    5   10     4     1    1.0000E+01  9.0919E-02   9.9091E+00  0.000E+00  0.000E+00  0.000E+00  1.07836E+03  6.368E-01  1.000E+01  2.500E-02  1.212E+00
   1    5    9     4     2    9.9091E+00  1.8158E-01   9.7275E+00  0.000E+00  0.000E+00  0.000E+00  1.07154E+03  6.315E-01  1.000E+01  5.000E-02  1.211E+00
   1    6    8     4     3    9.7275E+00  1.2689E-01   9.6006E+00  0.000E+00  0.000E+00  0.000E+00  1.06381E+03  6.256E-01  1.000E+01  3.500E-02  1.209E+00
   1    6    8     5     1    1.0432E+01  2.2686E-01   1.0205E+01  0.000E+00  0.000E+00  0.000E+00  1.05868E+03  6.790E-01  1.542E+01  6.166E-02  1.226E+00
   1    7    7     5     2    1.0205E+01  2.7894E-01   9.9265E+00  0.000E+00  0.000E+00  0.000E+00  1.05417E+03  6.732E-01  1.519E+01  7.594E-02  1.224E+00
   1    8    7     5     3    9.9265E+00  1.9221E-01   9.7343E+00  0.000E+00  0.000E+00  0.000E+00  1.04992E+03  6.676E-01  1.497E+01  5.241E-02  1.223E+00
   1    8    6     5     4    9.7343E+00  1.3577E-01   9.5985E+00  0.000E+00  0.000E+00  0.000E+00  1.04691E+03  6.637E-01  1.482E+01  3.706E-02  1.221E+00
   1    9    6     6     1    2.6192E+01  2.5512E-01   2.5937E+01  0.000E+00  0.000E+00  0.000E+00  1.04398E+03  1.252E+00  1.200E+01  6.000E-02  1.417E+00
   1   10    7     6     2    2.5937E+01  2.5468E-01   2.5683E+01  0.000E+00  0.000E+00  0.000E+00  1.03943E+03  1.245E+00  1.200E+01  6.000E-02  1.415E+00
   1   11    7     6     3    2.5683E+01  2.5424E-01   2.5428E+01  0.000E+00  0.000E+00  0.000E+00  1.03487E+03  1.237E+00  1.200E+01  6.000E-02  1.412E+00
   1   12    7     6     4    2.5428E+01  2.5379E-01   2.5174E+01  0.000E+00  0.000E+00  0.000E+00  1.03032E+03  1.230E+00  1.200E+01  6.000E-02  1.410E+00
   1   13    7     6     5    2.5174E+01  6.2058E-03   2.5168E+01  0.000E+00  0.000E+00  0.000E+00  1.02714E+03  1.226E+00  1.200E+01  2.400E-02  8.619E-02
   1   14    9     7     1    1.5000E+02  1.1577E+00   1.4884E+02  0.000E+00  0.000E+00  0.000E+00  1.03987E+03  2.288E+00  5.530E+01  5.593E-01  6.900E-01
   1   13    8     7     2    1.4884E+02  1.6735E+00   1.4717E+02  0.000E+00  0.000E+00  0.000E+00  1.03478E+03  2.281E+00  5.526E+01  6.148E-01  9.072E-01
   1   13    7     7     3    1.4717E+02  1.5721E+00   1.4560E+02  0.000E+00  0.000E+00  0.000E+00  1.02969E+03  2.272E+00  5.522E+01  5.585E-01  9.383E-01
   1   13    6     8     1    1.7076E+02  1.0589E+00   1.6971E+02  0.000E+00  0.000E+00  0.000E+00  1.02483E+03  2.954E+00  4.283E+01  4.364E-01  8.087E-01
   1   13    5     8     2    1.6971E+02  2.8980E-01   1.6942E+02  0.000E+00  0.000E+00  0.000E+00  1.01857E+03  2.949E+00  4.277E+01  4.358E-01  2.217E-01
   1   13    4     8     3    1.6942E+02 -2.0614E+00   1.7148E+02  0.000E+00  0.000E+00  0.000E+00  1.01233E+03  2.955E+00  4.285E+01  4.366E+00 -1.574E-01
   1   13    3     8     4    1.7148E+02 -3.1862E+00   1.7466E+02  0.000E+00  0.000E+00  0.000E+00  1.00610E+03  2.972E+00  4.310E+01  4.392E+00 -2.418E-01
   1   13    2     8     5    1.7466E+02 -1.6873E+00   1.7635E+02  0.000E+00  0.000E+00  0.000E+00  9.99863E+02  2.988E+00  4.332E+01  4.415E+00 -1.274E-01
   1   13    1     8     6    1.7635E+02 -9.6741E-01   1.7732E+02  0.000E+00  0.000E+00  0.000E+00  9.94871E+02  2.996E+00  4.344E+01  2.656E+00 -1.214E-01
   1    6    8     9     1    4.2024E-07  0.0000E+00   4.2024E-07  0.000E+00  0.000E+00  0.000E+00  1.07850E+03  1.907E-05  4.000E+00  0.000E+00  1.000E+00



 UBDSV3 SAVING "     NETRECHARGE" ON UNIT 100 AT TIME STEP     5, STRESS PERIOD  10
 UBDSV3 SAVING "    NETDISCHARGE" ON UNIT 101 AT TIME STEP     5, STRESS PERIOD  10
 UBDSV3 SAVING "           GW ET" ON UNIT  61 AT TIME STEP     5, STRESS PERIOD  10
 UBDSV3 SAVING "    UZF RECHARGE" ON UNIT  61 AT TIME STEP     5, STRESS PERIOD  10
 UBDSV3 SAVING " SURFACE LEAKAGE" ON UNIT  61 AT TIME STEP     5, STRESS PERIOD  10
 UBDSV3 SAVING "       HORT+DUNN" ON UNIT  61 AT TIME STEP     5, STRESS PERIOD  10
 UBDSV3 SAVING "  STORAGE CHANGE" ON UNIT  61 AT TIME STEP     5, STRESS PERIOD  10


UNSATURATED ZONE PACKAGE VOLUMETRIC BUDGET FOR  TIME STEP     5 STRESS PERIOD   10
  ------------------------------------------------------------------------------



     CUMULATIVE VOLUMES      L**3       RATES FOR THIS TIME STEP      L**3/T
     ------------------                 ------------------------

           IN:                                      IN:
           ---                                      ---
        INFILTRATION =    24299571.7483          INFILTRATION =           0.0000

          OUT:                                     OUT:
          ----                                     ----
              UZF ET =   548546644.1996                UZF ET =           2.2500
        UZF RECHARGE =   547820213.9037          UZF RECHARGE =          22.5892

            IN - OUT = -1072067286.3550              IN - OUT =         -24.8392

          STORAGE:                                 STORAGE:
          --------                                 --------
      STORAGE CHANGE = -1072041859.7014        STORAGE CHANGE =         -24.8392

 PERCENT DISCREPANCY IS DIFFERENCE BETWEEN IN-OUT MINUS CHANGE IN STORAGE
 DIVIDED BY THE AVERAGE OF IN AND OUT TIMES 100

 PERCENT DISCREPANCY =          -0.00     PERCENT DISCREPANCY =           0.00






1
  VOLUMETRIC BUDGET FOR ENTIRE MODEL AT END OF TIME STEP    5, STRESS PERIOD  10
  ------------------------------------------------------------------------------

     CUMULATIVE VOLUMES      L**3       RATES FOR THIS TIME STEP      L**3/T
     ------------------                 ------------------------

           IN:                                      IN:
           ---                                      ---
             STORAGE     =    31324652.0000               STORAGE     =           0.4615
       CONSTANT HEAD     =           0.0000         CONSTANT HEAD     =           0.0000
               WELLS     =           0.0000                 WELLS     =           0.0000
     HEAD DEP BOUNDS     =     5970939.0000       HEAD DEP BOUNDS     =           0.2736
      STREAM LEAKAGE     =   256094144.0000        STREAM LEAKAGE     =          11.5837
        UZF RECHARGE     =   547820160.0000          UZF RECHARGE     =          22.5892
               GW ET     =           0.0000                 GW ET     =           0.0000
     SURFACE LEAKAGE     =           0.0000       SURFACE LEAKAGE     =           0.0000
    SUPPLEMENTARY WELLS  =           0.0000      SUPPLEMENTARY WELLS  =           0.0000

                TOTAL IN =   841209856.0000                  TOTAL IN =          34.9081

          OUT:                                     OUT:
          ----                                     ----
             STORAGE     =   545882176.0000               STORAGE     =          24.1598
       CONSTANT HEAD     =           0.0000         CONSTANT HEAD     =           0.0000
               WELLS     =           0.0000                 WELLS     =           0.0000
     HEAD DEP BOUNDS     =     6217583.5000       HEAD DEP BOUNDS     =           0.2749
      STREAM LEAKAGE     =   211484544.0000        STREAM LEAKAGE     =           7.9023
        UZF RECHARGE     =           0.0000          UZF RECHARGE     =           0.0000
               GW ET     =    77499232.0000                 GW ET     =           2.5677
     SURFACE LEAKAGE     =           0.0000       SURFACE LEAKAGE     =           0.0000
    SUPPLEMENTARY WELLS  =       32303.0469      SUPPLEMENTARY WELLS  =       3.1137E-08

               TOTAL OUT =   841115840.0000                 TOTAL OUT =          34.9047

                IN - OUT =       94016.0000                  IN - OUT =       3.3417E-03

     PERCENT DISCREPANCY =           0.01         PERCENT DISCREPANCY =           0.01






         TIME SUMMARY AT END OF TIME STEP    5 IN STRESS PERIOD   10
                    SECONDS     MINUTES      HOURS       DAYS        YEARS
                    -----------------------------------------------------------
   TIME STEP LENGTH  87600.      1460.0      24.333      1.0139     2.77588E-03
 STRESS PERIOD TIME 4.38000E+05  7300.0      121.67      5.0694     1.38794E-02
         TOTAL TIME 2.15484E+07 3.59140E+05  5985.7      249.40     0.68283    
1
 
 SOLVING FOR HEAD 
                                                   Max.-Head-Change                         Max.-Flux-Residual
  Residual-Control   Outer-Iter.   Inner-Iter.     Column Row Layer    Maximum-Head-Change  Column Row Layer    Maximum-Flux-Residual          L2-NORM 
          0                 1           2             5   13     1       0.1542727263E-01       5   13    1         0.8263422603E+00      0.2273016747E+01
          0                 2           2             1    2     1       0.2257264060E-02       5   13    1        -0.6549228494E-01      0.3918538315E+00
          0                 3           2             1    2     1       0.1013586706E-02       1    2    1         0.2634466446E-01      0.1399886859E+00
          0                 4           2             1    2     1       0.4550475337E-03       1    2    1         0.1182881336E-01      0.6057583867E-01
          0                 5           2             1    2     1       0.2042774290E-03       1    2    1         0.5310376734E-02      0.2699411447E-01
          0                 6           1             1    2     1       0.9170044130E-04       1    2    1         0.2383879979E-02      0.1207975057E-01
          0                 7           1             1    2     1       0.4116399858E-04       1    2    1         0.1070122870E-02      0.5409365331E-02
          0                 8           1             1    2     1       0.1847828967E-04       1    2    1         0.4803735469E-03      0.2422563383E-02
          0                 9           1             1    2     1       0.8294786937E-05       1    2    1         0.2156368720E-03      0.1085047813E-02

    ------------------------------------------------
       NWT REQUIRED            9 OUTER ITERATIONS 
       AND A TOTAL OF         14 INNER ITERATIONS.
    ------------------------------------------------

 NO OUTPUT CONTROL FOR STRESS PERIOD   10   TIME STEP    6
 
 SOLVING FOR HEAD 
                                                   Max.-Head-Change                         Max.-Flux-Residual
  Residual-Control   Outer-Iter.   Inner-Iter.     Column Row Layer    Maximum-Head-Change  Column Row Layer    Maximum-Flux-Residual          L2-NORM 
          0                 1           2             5   13     1       0.1498169318E-01       5   13    1         0.8026861019E+00      0.2197024892E+01
          0                 2           2             1    2     1       0.2253758844E-02       4   13    1         0.6479566163E-01      0.3922412464E+00
          0                 3           2             1    2     1       0.1012013666E-02       1    2    1         0.2630376691E-01      0.1398333595E+00
          0                 4           2             1    2     1       0.4543412917E-03       1    2    1         0.1181045678E-01      0.6049615764E-01
          0                 5           2             1    2     1       0.2039602975E-03       1    2    1         0.5302134735E-02      0.2695850431E-01
          0                 6           1             1    2     1       0.9155802658E-04       1    2    1         0.2380178891E-02      0.1206391756E-01
          0                 7           1             1    2     1       0.4110004344E-04       1    2    1         0.1068460816E-02      0.5402292459E-02
          0                 8           1             1    2     1       0.1844956817E-04       1    2    1         0.4796271442E-03      0.2419451982E-02
          0                 9           1             1    2     1       0.8281888210E-05       1    2    1         0.2153016728E-03      0.1083667530E-02

    ------------------------------------------------
       NWT REQUIRED            9 OUTER ITERATIONS 
       AND A TOTAL OF         14 INNER ITERATIONS.
    ------------------------------------------------

 NO OUTPUT CONTROL FOR STRESS PERIOD   10   TIME STEP    7
 
 SOLVING FOR HEAD 
                                                   Max.-Head-Change                         Max.-Flux-Residual
  Residual-Control   Outer-Iter.   Inner-Iter.     Column Row Layer    Maximum-Head-Change  Column Row Layer    Maximum-Flux-Residual          L2-NORM 
          0                 1           2             5   13     1       0.1454650994E-01       5   13    1         0.7795772019E+00      0.2128237911E+01
          0                 2           2             1    2     1       0.2250258634E-02       4   13    1         0.6908535513E-01      0.3927787711E+00
          0                 3           2             1    2     1       0.1010442856E-02       1    2    1         0.2626292760E-01      0.1396893111E+00
          0                 4           2             1    2     1       0.4536360483E-03       1    2    1         0.1179212619E-01      0.6041947711E-01
          0                 5           2             1    2     1       0.2036436141E-03       1    2    1         0.5293904394E-02      0.2692408185E-01
          0                 6           1             1    2     1       0.9141581444E-04       1    2    1         0.2376483046E-02      0.1204854930E-01
          0                 7           1             1    2     1       0.4103617808E-04       1    2    1         0.1066801102E-02      0.5395368178E-02
          0                 8           1             1    2     1       0.1842088743E-04       1    2    1         0.4788818022E-03      0.2416425727E-02
          0                 9           1             1    2     1       0.8269008492E-05       1    2    1         0.2149669520E-03      0.1082322404E-02

    ------------------------------------------------
       NWT REQUIRED            9 OUTER ITERATIONS 
       AND A TOTAL OF         14 INNER ITERATIONS.
    ------------------------------------------------

 NO OUTPUT CONTROL FOR STRESS PERIOD   10   TIME STEP    8
 
 SOLVING FOR HEAD 
                                                   Max.-Head-Change                         Max.-Flux-Residual
  Residual-Control   Outer-Iter.   Inner-Iter.     Column Row Layer    Maximum-Head-Change  Column Row Layer    Maximum-Flux-Residual          L2-NORM 
          0                 1           2             5   13     1       0.1412236331E-01       5   13    1         0.7570025677E+00      0.2065901664E+01
          0                 2           2             1    2     1       0.2246804794E-02       4   13    1         0.7298514190E-01      0.3934144529E+00
          0                 3           2             1    2     1       0.1008892846E-02       1    2    1         0.2622262924E-01      0.1395492207E+00
          0                 4           2             1    2     1       0.4529401406E-03       1    2    1         0.1177403830E-01      0.6034354595E-01
          0                 5           2             1    2     1       0.2033311222E-03       1    2    1         0.5285782994E-02      0.2689009960E-01
          0                 6           1             1    2     1       0.9127548313E-04       1    2    1         0.2372836108E-02      0.1203347609E-01
          0                 7           1             1    2     1       0.4097315885E-04       1    2    1         0.1065163364E-02      0.5388682769E-02
          0                 8           1             1    2     1       0.1839258612E-04       1    2    1         0.4781463184E-03      0.2413458897E-02
          0                 9           1             1    2     1       0.8256298349E-05       1    2    1         0.2146366584E-03      0.1081005414E-02

    ------------------------------------------------
       NWT REQUIRED            9 OUTER ITERATIONS 
       AND A TOTAL OF         14 INNER ITERATIONS.
    ------------------------------------------------

 NO OUTPUT CONTROL FOR STRESS PERIOD   10   TIME STEP    9
 
 SOLVING FOR HEAD 
                                                   Max.-Head-Change                         Max.-Flux-Residual
  Residual-Control   Outer-Iter.   Inner-Iter.     Column Row Layer    Maximum-Head-Change  Column Row Layer    Maximum-Flux-Residual          L2-NORM 
          0                 1           2             5   13     1       0.1370948953E-01       5   13    1         0.7349970212E+00      0.2009389280E+01
          0                 2           2             1    2     1       0.2243355270E-02       4   13    1         0.7652870356E-01      0.3941229452E+00
          0                 3           2             1    2     1       0.1007344757E-02       1    2    1         0.2618238109E-01      0.1394159769E+00
          0                 4           2             1    2     1       0.4522450943E-03       1    2    1         0.1175597282E-01      0.6026978642E-01
          0                 5           2             1    2     1       0.2030190166E-03       1    2    1         0.5277671640E-02      0.2685704922E-01
          0                 6           1             1    2     1       0.9113532616E-04       1    2    1         0.2369193681E-02      0.1201880721E-01
          0                 7           1             1    2     1       0.4091021641E-04       1    2    1         0.1063527641E-02      0.5382172542E-02
          0                 8           1             1    2     1       0.1836431982E-04       1    2    1         0.4774117487E-03      0.2410566751E-02
          0                 9           1             1    2     1       0.8243604713E-05       1    2    1         0.2143067752E-03      0.1079728232E-02

    ------------------------------------------------
       NWT REQUIRED            9 OUTER ITERATIONS 
       AND A TOTAL OF         14 INNER ITERATIONS.
    ------------------------------------------------

 OUTPUT CONTROL FOR STRESS PERIOD   10   TIME STEP   10
    PRINT BUDGET
    SAVE BUDGET
 UBUDSV SAVING "         STORAGE" ON UNIT102 AT TIME STEP    10, STRESS PERIOD   10
 UBUDSV SAVING "   CONSTANT HEAD" ON UNIT102 AT TIME STEP    10, STRESS PERIOD   10
 UBUDSV SAVING "FLOW RIGHT FACE " ON UNIT102 AT TIME STEP    10, STRESS PERIOD   10
 UBUDSV SAVING "FLOW FRONT FACE " ON UNIT102 AT TIME STEP    10, STRESS PERIOD   10

  HEAD DEP BOUNDS   PERIOD   10   STEP    10
 BOUNDARY      1   LAYER   1   ROW    13   COL     1   RATE   -0.277386    
 BOUNDARY      2   LAYER   1   ROW    14   COL     9   RATE    0.273607    



 STREAM LISTING     PERIOD     10   STEP       10

 LAYER ROW COL. STREAM  RCH.  FLOW INTO     FLOW TO   FLOW OUT OF   OVRLND.     DIRECT     STREAM       STREAM     STREAM     STREAM   STREAMBED  STREAMBED
                SEG.NO.  NO.  STRM. RCH.    AQUIFER    STRM. RCH.    RUNOFF     PRECIP       ET          HEAD       DEPTH      WIDTH   CONDCTNC.   GRADIENT

   1    1    1     1     1    2.1000E+01  2.2592E-01   2.0774E+01  0.000E+00  0.000E+00  0.000E+00  1.09416E+03  1.115E+00  1.220E+01  5.490E-02  1.372E+00
   1    2    2     1     2    2.0774E+01  3.4916E-01   2.0425E+01  0.000E+00  0.000E+00  0.000E+00  1.08917E+03  1.110E+00  1.214E+01  8.495E-02  1.370E+00
   1    3    3     1     3    2.0425E+01  2.9709E-01   2.0128E+01  0.000E+00  0.000E+00  0.000E+00  1.08352E+03  1.105E+00  1.206E+01  7.238E-02  1.368E+00
   1    3    4     1     4    2.0128E+01  2.7299E-01   1.9855E+01  0.000E+00  0.000E+00  0.000E+00  1.07851E+03  1.100E+00  1.200E+01  6.659E-02  1.367E+00
   1    4    5     2     1    1.7855E+01  3.1056E-01   1.7544E+01  0.000E+00  0.000E+00  0.000E+00  1.07292E+03  9.816E-01  1.200E+01  7.800E-02  1.327E+00
   1    5    6     2     2    1.7544E+01  2.3834E-01   1.7306E+01  0.000E+00  0.000E+00  0.000E+00  1.06748E+03  9.724E-01  1.200E+01  6.000E-02  1.324E+00
   1    6    6     2     3    1.7306E+01  2.3786E-01   1.7068E+01  0.000E+00  0.000E+00  0.000E+00  1.06276E+03  9.644E-01  1.200E+01  6.000E-02  1.321E+00
   1    7    6     2     4    1.7068E+01  2.3738E-01   1.6831E+01  0.000E+00  0.000E+00  0.000E+00  1.05803E+03  9.564E-01  1.200E+01  6.000E-02  1.319E+00
   1    8    6     2     5    1.6831E+01  2.3690E-01   1.6594E+01  0.000E+00  0.000E+00  0.000E+00  1.05331E+03  9.483E-01  1.200E+01  6.000E-02  1.316E+00
   1    3    5     3     1    2.0000E+00  2.8252E-01   1.7175E+00  0.000E+00  0.000E+00  0.000E+00  1.07555E+03  1.909E+00  9.636E+00  7.227E-02  1.955E+00
   1    3    6     3     2    1.7175E+00  2.4905E-01   1.4684E+00  0.000E+00  0.000E+00  0.000E+00  1.07264E+03  1.727E+00  8.909E+00  6.682E-02  1.864E+00
   1    3    7     3     3    1.4684E+00  1.9718E-01   1.2712E+00  0.000E+00  0.000E+00  0.000E+00  1.06987E+03  1.555E+00  8.218E+00  5.547E-02  1.777E+00
   1    4    8     3     4    1.2712E+00  2.2567E-01   1.0456E+00  0.000E+00  0.000E+00  0.000E+00  1.06682E+03  1.364E+00  7.455E+00  6.709E-02  1.682E+00
   1    5    8     3     5    1.0456E+00  1.5790E-01   8.8768E-01  0.000E+00  0.000E+00  0.000E+00  1.06362E+03  1.164E+00  6.655E+00  4.991E-02  1.582E+00
   1    6    8     3     6    8.8768E-01  5.5980E-02   8.3170E-01  0.000E+00  0.000E+00  0.000E+00  1.06158E+03  1.036E+00  6.145E+00  1.844E-02  1.518E+00
   1    5   10     4     1    1.0000E+01  9.0919E-02   9.9091E+00  0.000E+00  0.000E+00  0.000E+00  1.07836E+03  6.368E-01  1.000E+01  2.500E-02  1.212E+00
   1    5    9     4     2    9.9091E+00  1.8158E-01   9.7275E+00  0.000E+00  0.000E+00  0.000E+00  1.07154E+03  6.315E-01  1.000E+01  5.000E-02  1.211E+00
   1    6    8     4     3    9.7275E+00  1.2689E-01   9.6006E+00  0.000E+00  0.000E+00  0.000E+00  1.06381E+03  6.256E-01  1.000E+01  3.500E-02  1.209E+00
   1    6    8     5     1    1.0432E+01  2.2686E-01   1.0205E+01  0.000E+00  0.000E+00  0.000E+00  1.05868E+03  6.790E-01  1.542E+01  6.166E-02  1.226E+00
   1    7    7     5     2    1.0205E+01  2.7894E-01   9.9265E+00  0.000E+00  0.000E+00  0.000E+00  1.05417E+03  6.732E-01  1.519E+01  7.594E-02  1.224E+00
   1    8    7     5     3    9.9265E+00  1.9221E-01   9.7343E+00  0.000E+00  0.000E+00  0.000E+00  1.04992E+03  6.676E-01  1.497E+01  5.241E-02  1.223E+00
   1    8    6     5     4    9.7343E+00  1.3577E-01   9.5985E+00  0.000E+00  0.000E+00  0.000E+00  1.04691E+03  6.637E-01  1.482E+01  3.706E-02  1.221E+00
   1    9    6     6     1    2.6192E+01  2.5512E-01   2.5937E+01  0.000E+00  0.000E+00  0.000E+00  1.04398E+03  1.252E+00  1.200E+01  6.000E-02  1.417E+00
   1   10    7     6     2    2.5937E+01  2.5468E-01   2.5683E+01  0.000E+00  0.000E+00  0.000E+00  1.03943E+03  1.245E+00  1.200E+01  6.000E-02  1.415E+00
   1   11    7     6     3    2.5683E+01  2.5424E-01   2.5428E+01  0.000E+00  0.000E+00  0.000E+00  1.03487E+03  1.237E+00  1.200E+01  6.000E-02  1.412E+00
   1   12    7     6     4    2.5428E+01  2.5379E-01   2.5174E+01  0.000E+00  0.000E+00  0.000E+00  1.03032E+03  1.230E+00  1.200E+01  6.000E-02  1.410E+00
   1   13    7     6     5    2.5174E+01  5.0546E-03   2.5169E+01  0.000E+00  0.000E+00  0.000E+00  1.02714E+03  1.226E+00  1.200E+01  2.400E-02  7.020E-02
   1   14    9     7     1    1.5000E+02  1.1573E+00   1.4884E+02  0.000E+00  0.000E+00  0.000E+00  1.03987E+03  2.288E+00  5.530E+01  5.593E-01  6.897E-01
   1   13    8     7     2    1.4884E+02  1.6758E+00   1.4717E+02  0.000E+00  0.000E+00  0.000E+00  1.03478E+03  2.281E+00  5.526E+01  6.148E-01  9.085E-01
   1   13    7     7     3    1.4717E+02  1.5454E+00   1.4562E+02  0.000E+00  0.000E+00  0.000E+00  1.02969E+03  2.272E+00  5.522E+01  5.585E-01  9.223E-01
   1   13    6     8     1    1.7079E+02  1.0317E+00   1.6976E+02  0.000E+00  0.000E+00  0.000E+00  1.02483E+03  2.954E+00  4.283E+01  4.365E-01  7.879E-01
   1   13    5     8     2    1.6976E+02  2.6051E-01   1.6950E+02  0.000E+00  0.000E+00  0.000E+00  1.01857E+03  2.950E+00  4.277E+01  4.359E-01  1.992E-01
   1   13    4     8     3    1.6950E+02 -2.2608E+00   1.7176E+02  0.000E+00  0.000E+00  0.000E+00  1.01233E+03  2.956E+00  4.287E+01  4.368E+00 -1.725E-01
   1   13    3     8     4    1.7176E+02 -3.3901E+00   1.7515E+02  0.000E+00  0.000E+00  0.000E+00  1.00610E+03  2.975E+00  4.313E+01  4.395E+00 -2.571E-01
   1   13    2     8     5    1.7515E+02 -1.9006E+00   1.7705E+02  0.000E+00  0.000E+00  0.000E+00  9.99867E+02  2.991E+00  4.338E+01  4.420E+00 -1.433E-01
   1   13    1     8     6    1.7705E+02 -1.1268E+00   1.7818E+02  0.000E+00  0.000E+00  0.000E+00  9.94876E+02  3.001E+00  4.352E+01  2.661E+00 -1.412E-01
   1    6    8     9     1    1.6427E-05  0.0000E+00   1.6427E-05  0.000E+00  0.000E+00  0.000E+00  1.07850E+03  1.115E-04  4.000E+00  0.000E+00  1.000E+00



 UBDSV3 SAVING "     NETRECHARGE" ON UNIT 100 AT TIME STEP    10, STRESS PERIOD  10
 UBDSV3 SAVING "    NETDISCHARGE" ON UNIT 101 AT TIME STEP    10, STRESS PERIOD  10
 UBDSV3 SAVING "           GW ET" ON UNIT  61 AT TIME STEP    10, STRESS PERIOD  10
 UBDSV3 SAVING "    UZF RECHARGE" ON UNIT  61 AT TIME STEP    10, STRESS PERIOD  10
 UBDSV3 SAVING " SURFACE LEAKAGE" ON UNIT  61 AT TIME STEP    10, STRESS PERIOD  10
 UBDSV3 SAVING "       HORT+DUNN" ON UNIT  61 AT TIME STEP    10, STRESS PERIOD  10
 UBDSV3 SAVING "  STORAGE CHANGE" ON UNIT  61 AT TIME STEP    10, STRESS PERIOD  10


UNSATURATED ZONE PACKAGE VOLUMETRIC BUDGET FOR  TIME STEP    10 STRESS PERIOD   10
  ------------------------------------------------------------------------------



     CUMULATIVE VOLUMES      L**3       RATES FOR THIS TIME STEP      L**3/T
     ------------------                 ------------------------

           IN:                                      IN:
           ---                                      ---
        INFILTRATION =    24299573.1611          INFILTRATION =           0.0000

          OUT:                                     OUT:
          ----                                     ----
              UZF ET =   549532138.5394                UZF ET =           2.2499
        UZF RECHARGE =   557730117.2681          UZF RECHARGE =          22.6463

            IN - OUT = -1082962682.6464              IN - OUT =         -24.8962

          STORAGE:                                 STORAGE:
          --------                                 --------
      STORAGE CHANGE = -1082937255.9460        STORAGE CHANGE =         -24.8962

 PERCENT DISCREPANCY IS DIFFERENCE BETWEEN IN-OUT MINUS CHANGE IN STORAGE
 DIVIDED BY THE AVERAGE OF IN AND OUT TIMES 100

 PERCENT DISCREPANCY =          -0.00     PERCENT DISCREPANCY =           0.00






1
  VOLUMETRIC BUDGET FOR ENTIRE MODEL AT END OF TIME STEP   10, STRESS PERIOD  10
  ------------------------------------------------------------------------------

     CUMULATIVE VOLUMES      L**3       RATES FOR THIS TIME STEP      L**3/T
     ------------------                 ------------------------

           IN:                                      IN:
           ---                                      ---
             STORAGE     =    31449042.0000               STORAGE     =           0.2049
       CONSTANT HEAD     =           0.0000         CONSTANT HEAD     =           0.0000
               WELLS     =           0.0000                 WELLS     =           0.0000
     HEAD DEP BOUNDS     =     6090784.0000       HEAD DEP BOUNDS     =           0.2736
      STREAM LEAKAGE     =   261145696.0000        STREAM LEAKAGE     =          11.5012
        UZF RECHARGE     =   557730112.0000          UZF RECHARGE     =          22.6463
               GW ET     =           0.0000                 GW ET     =           0.0000
     SURFACE LEAKAGE     =           0.0000       SURFACE LEAKAGE     =           0.0000
    SUPPLEMENTARY WELLS  =           0.0000      SUPPLEMENTARY WELLS  =           0.0000

                TOTAL IN =   856415616.0000                  TOTAL IN =          34.6260

          OUT:                                     OUT:
          ----                                     ----
             STORAGE     =   556156288.0000               STORAGE     =          23.0650
       CONSTANT HEAD     =           0.0000         CONSTANT HEAD     =           0.0000
               WELLS     =           0.0000                 WELLS     =           0.0000
     HEAD DEP BOUNDS     =     6338670.0000       HEAD DEP BOUNDS     =           0.2774
      STREAM LEAKAGE     =   215159200.0000        STREAM LEAKAGE     =           8.6783
        UZF RECHARGE     =           0.0000          UZF RECHARGE     =           0.0000
               GW ET     =    78633568.0000                 GW ET     =           2.6020
     SURFACE LEAKAGE     =           0.0000       SURFACE LEAKAGE     =           0.0000
    SUPPLEMENTARY WELLS  =       32307.5762      SUPPLEMENTARY WELLS  =       5.1561E-05

               TOTAL OUT =   856320064.0000                 TOTAL OUT =          34.6227

                IN - OUT =       95552.0000                  IN - OUT =       3.2921E-03

     PERCENT DISCREPANCY =           0.01         PERCENT DISCREPANCY =           0.01






         TIME SUMMARY AT END OF TIME STEP   10 IN STRESS PERIOD   10
                    SECONDS     MINUTES      HOURS       DAYS        YEARS
                    -----------------------------------------------------------
   TIME STEP LENGTH  87600.      1460.0      24.333      1.0139     2.77588E-03
 STRESS PERIOD TIME 8.76000E+05  14600.      243.33      10.139     2.77588E-02
         TOTAL TIME 2.19864E+07 3.66440E+05  6107.3      254.47     0.69671    
1
 
 SOLVING FOR HEAD 
                                                   Max.-Head-Change                         Max.-Flux-Residual
  Residual-Control   Outer-Iter.   Inner-Iter.     Column Row Layer    Maximum-Head-Change  Column Row Layer    Maximum-Flux-Residual          L2-NORM 
          0                 1           2             5   13     1       0.1330814805E-01       5   13    1         0.7135881595E+00      0.1958216172E+01
          0                 2           2             1    2     1       0.2239930631E-02       4   13    1         0.7969570532E-01      0.3948615715E+00
          0                 3           2             1    2     1       0.1005807824E-02       1    2    1         0.2614242316E-01      0.1392662854E+00
          0                 4           2             1    2     1       0.4515550532E-03       1    2    1         0.1173803748E-01      0.6018664713E-01
          0                 5           2             1    2     1       0.2027091583E-03       1    2    1         0.5269618703E-02      0.2683004068E-01
          0                 6           1             1    2     1       0.9099617788E-04       1    2    1         0.2365577488E-02      0.1222724443E-01
          0                 7           1             4    6     1      -0.7679674605E-04       4    6    1        -0.4239194972E-02      0.6847651323E-02
          0                 8           1             4    6     1       0.1077676275E-03       4    6    1         0.5993443656E-02      0.6468221636E-02
          0                 9           1             1    2     1       0.8231001868E-05       4    6    1        -0.3316929526E-03      0.1129781832E-02

    ------------------------------------------------
       NWT REQUIRED            9 OUTER ITERATIONS 
       AND A TOTAL OF         14 INNER ITERATIONS.
    ------------------------------------------------

 NO OUTPUT CONTROL FOR STRESS PERIOD   10   TIME STEP   11
 
 SOLVING FOR HEAD 
                                                   Max.-Head-Change                         Max.-Flux-Residual
  Residual-Control   Outer-Iter.   Inner-Iter.     Column Row Layer    Maximum-Head-Change  Column Row Layer    Maximum-Flux-Residual          L2-NORM 
          0                 1           2             5   13     1       0.1291750625E-01       5   13    1         0.6927571389E+00      0.1911836545E+01
          0                 2           2             1    2     1       0.2236551380E-02       4   13    1         0.8257065308E-01      0.3956129479E+00
          0                 3           2             1    2     1       0.1004291251E-02       1    2    1         0.2610299474E-01      0.1390792059E+00
          0                 4           2             1    2     1       0.4508741513E-03       1    2    1         0.1172033974E-01      0.6011953223E-01
          0                 5           2             4    6     1      -0.2060242536E-03       4    6    1        -0.1139577942E-01      0.2911512761E-01
          0                 6           2             4    6     1       0.2047367873E-03       4    6    1         0.1137721273E-01      0.1654027737E-01
          0                 7           2             4    6     1      -0.1378161181E-03       4    6    1        -0.7744877045E-02      0.9425310081E-02
          0                 8           1             1    2     1       0.1830856632E-04       1    2    1         0.4759628385E-03      0.2461742901E-02
          0                 9           2             4    6     1       0.1396562456E-03       4    6    1         0.7911145704E-02      0.7995419187E-02
          0                10           1             4    6     1      -0.6221710455E-05       4    6    1        -0.3575506025E-03      0.6047835132E-03

    ------------------------------------------------
       NWT REQUIRED           10 OUTER ITERATIONS 
       AND A TOTAL OF         18 INNER ITERATIONS.
    ------------------------------------------------

 NO OUTPUT CONTROL FOR STRESS PERIOD   10   TIME STEP   12
 
 SOLVING FOR HEAD 
                                                   Max.-Head-Change                         Max.-Flux-Residual
  Residual-Control   Outer-Iter.   Inner-Iter.     Column Row Layer    Maximum-Head-Change  Column Row Layer    Maximum-Flux-Residual          L2-NORM 
          0                 1           2             5   13     1       0.1253809273E-01       5   13    1         0.6724760588E+00      0.1869796536E+01
          0                 2           2             1    2     1       0.2233171764E-02       4   13    1         0.8517376584E-01      0.3963630488E+00
          0                 3           2             1    2     1       0.1002774498E-02       1    2    1         0.2606356189E-01      0.1390378384E+00
          0                 4           2             1    2     1       0.4501931663E-03       1    2    1         0.1170263985E-01      0.6005709344E-01
          0                 5           2             1    2     1       0.2020976100E-03       1    2    1         0.5253725139E-02      0.2676143847E-01
          0                 6           1             1    2     1       0.9072154945E-04       1    2    1         0.2358440412E-02      0.1197625579E-01
          0                 7           1             1    2     1       0.4072439741E-04       1    2    1         0.1058698622E-02      0.5363260014E-02
          0                 8           1             1    2     1       0.1828087127E-04       1    2    1         0.4752431196E-03      0.2402199474E-02
          0                 9           1             1    2     1       0.8206128825E-05       1    2    1         0.2133328762E-03      0.1076155085E-02

    ------------------------------------------------
       NWT REQUIRED            9 OUTER ITERATIONS 
       AND A TOTAL OF         14 INNER ITERATIONS.
    ------------------------------------------------

 NO OUTPUT CONTROL FOR STRESS PERIOD   10   TIME STEP   13
 
 SOLVING FOR HEAD 
                                                   Max.-Head-Change                         Max.-Flux-Residual
  Residual-Control   Outer-Iter.   Inner-Iter.     Column Row Layer    Maximum-Head-Change  Column Row Layer    Maximum-Flux-Residual          L2-NORM 
          0                 1           2             5   13     1       0.1217026585E-01       5   13    1         0.6528013972E+00      0.1831619515E+01
          0                 2           2             1    2     1       0.2229798893E-02       4   13    1         0.8775817864E-01      0.3972368352E+00
          0                 3           2             1    2     1       0.1001260758E-02       1    2    1         0.2602420760E-01      0.1389251703E+00
          0                 4           2             1    2     1       0.4495135325E-03       1    2    1         0.1168497513E-01      0.5998895827E-01
          0                 5           2             1    2     1       0.2017924245E-03       1    2    1         0.5245793650E-02      0.2673057926E-01
          0                 6           1             1    2     1       0.9058449935E-04       1    2    1         0.2354878739E-02      0.1196251182E-01
          0                 7           1             1    2     1       0.4066285108E-04       1    2    1         0.1057099168E-02      0.5357445965E-02
          0                 8           1             1    2     1       0.1825323200E-04       1    2    1         0.4745248333E-03      0.2404854881E-02
          0                 9           1             4    6     1      -0.1234186791E-04       4    6    1        -0.6814819878E-03      0.1272654667E-02
          0                10           1             4    6     1       0.5131752667E-05       4    6    1         0.2851024424E-03      0.5614173095E-03

    ------------------------------------------------
       NWT REQUIRED           10 OUTER ITERATIONS 
       AND A TOTAL OF         15 INNER ITERATIONS.
    ------------------------------------------------

 NO OUTPUT CONTROL FOR STRESS PERIOD   10   TIME STEP   14
 
 SOLVING FOR HEAD 
                                                   Max.-Head-Change                         Max.-Flux-Residual
  Residual-Control   Outer-Iter.   Inner-Iter.     Column Row Layer    Maximum-Head-Change  Column Row Layer    Maximum-Flux-Residual          L2-NORM 
          0                 1           2             5   13     1       0.1181341096E-01       5   13    1         0.6337134341E+00      0.1796953145E+01
          0                 2           2             1    2     1       0.2226466919E-02       4   13    1         0.8964061889E-01      0.3978099780E+00
          0                 3           2             1    2     1       0.9997653647E-03       1    2    1         0.2598533043E-01      0.1386526985E+00
          0                 4           2             1    2     1       0.4488421332E-03       1    2    1         0.1166752446E-01      0.5991037015E-01
          0                 5           2             1    2     1       0.2014909352E-03       4    6    1         0.5737874602E-02      0.2731022371E-01
          0                 6           1             1    2     1       0.9044910874E-04       1    2    1         0.2351360207E-02      0.1195136506E-01
          0                 7           1             1    2     1       0.4060204984E-04       1    2    1         0.1055519086E-02      0.5404279194E-02
          0                 8           1             4    6     1      -0.2809867539E-04       4    6    1        -0.1579997884E-02      0.2872999271E-02
          0                 9           1             4    6     1       0.9114415210E-05       4    6    1         0.5154886301E-03      0.1205068261E-02

    ------------------------------------------------
       NWT REQUIRED            9 OUTER ITERATIONS 
       AND A TOTAL OF         14 INNER ITERATIONS.
    ------------------------------------------------

 OUTPUT CONTROL FOR STRESS PERIOD   10   TIME STEP   15
    PRINT BUDGET
    PRINT HEAD FOR ALL LAYERS
    SAVE HEAD FOR ALL LAYERS
    SAVE BUDGET
 UBUDSV SAVING "         STORAGE" ON UNIT102 AT TIME STEP    15, STRESS PERIOD   10
 UBUDSV SAVING "   CONSTANT HEAD" ON UNIT102 AT TIME STEP    15, STRESS PERIOD   10
 UBUDSV SAVING "FLOW RIGHT FACE " ON UNIT102 AT TIME STEP    15, STRESS PERIOD   10
 UBUDSV SAVING "FLOW FRONT FACE " ON UNIT102 AT TIME STEP    15, STRESS PERIOD   10

  HEAD DEP BOUNDS   PERIOD   10   STEP    15
 BOUNDARY      1   LAYER   1   ROW    13   COL     1   RATE   -0.279325    
 BOUNDARY      2   LAYER   1   ROW    14   COL     9   RATE    0.273576    



 STREAM LISTING     PERIOD     10   STEP       15

 LAYER ROW COL. STREAM  RCH.  FLOW INTO     FLOW TO   FLOW OUT OF   OVRLND.     DIRECT     STREAM       STREAM     STREAM     STREAM   STREAMBED  STREAMBED
                SEG.NO.  NO.  STRM. RCH.    AQUIFER    STRM. RCH.    RUNOFF     PRECIP       ET          HEAD       DEPTH      WIDTH   CONDCTNC.   GRADIENT

   1    1    1     1     1    2.1000E+01  2.2592E-01   2.0774E+01  0.000E+00  0.000E+00  0.000E+00  1.09416E+03  1.115E+00  1.220E+01  5.490E-02  1.372E+00
   1    2    2     1     2    2.0774E+01  3.4916E-01   2.0425E+01  0.000E+00  0.000E+00  0.000E+00  1.08917E+03  1.110E+00  1.214E+01  8.495E-02  1.370E+00
   1    3    3     1     3    2.0425E+01  2.9709E-01   2.0128E+01  0.000E+00  0.000E+00  0.000E+00  1.08352E+03  1.105E+00  1.206E+01  7.238E-02  1.368E+00
   1    3    4     1     4    2.0128E+01  2.7299E-01   1.9855E+01  0.000E+00  0.000E+00  0.000E+00  1.07851E+03  1.100E+00  1.200E+01  6.659E-02  1.367E+00
   1    4    5     2     1    1.7855E+01  3.1056E-01   1.7544E+01  0.000E+00  0.000E+00  0.000E+00  1.07292E+03  9.816E-01  1.200E+01  7.800E-02  1.327E+00
   1    5    6     2     2    1.7544E+01  2.3834E-01   1.7306E+01  0.000E+00  0.000E+00  0.000E+00  1.06748E+03  9.724E-01  1.200E+01  6.000E-02  1.324E+00
   1    6    6     2     3    1.7306E+01  2.3786E-01   1.7068E+01  0.000E+00  0.000E+00  0.000E+00  1.06276E+03  9.644E-01  1.200E+01  6.000E-02  1.321E+00
   1    7    6     2     4    1.7068E+01  2.3738E-01   1.6831E+01  0.000E+00  0.000E+00  0.000E+00  1.05803E+03  9.564E-01  1.200E+01  6.000E-02  1.319E+00
   1    8    6     2     5    1.6831E+01  2.3690E-01   1.6594E+01  0.000E+00  0.000E+00  0.000E+00  1.05331E+03  9.483E-01  1.200E+01  6.000E-02  1.316E+00
   1    3    5     3     1    2.0000E+00  2.8252E-01   1.7175E+00  0.000E+00  0.000E+00  0.000E+00  1.07555E+03  1.909E+00  9.636E+00  7.227E-02  1.955E+00
   1    3    6     3     2    1.7175E+00  2.4905E-01   1.4684E+00  0.000E+00  0.000E+00  0.000E+00  1.07264E+03  1.727E+00  8.909E+00  6.682E-02  1.864E+00
   1    3    7     3     3    1.4684E+00  1.9718E-01   1.2712E+00  0.000E+00  0.000E+00  0.000E+00  1.06987E+03  1.555E+00  8.218E+00  5.547E-02  1.777E+00
   1    4    8     3     4    1.2712E+00  2.2567E-01   1.0456E+00  0.000E+00  0.000E+00  0.000E+00  1.06682E+03  1.364E+00  7.455E+00  6.709E-02  1.682E+00
   1    5    8     3     5    1.0456E+00  1.5790E-01   8.8768E-01  0.000E+00  0.000E+00  0.000E+00  1.06362E+03  1.164E+00  6.655E+00  4.991E-02  1.582E+00
   1    6    8     3     6    8.8768E-01  5.5980E-02   8.3170E-01  0.000E+00  0.000E+00  0.000E+00  1.06158E+03  1.036E+00  6.145E+00  1.844E-02  1.518E+00
   1    5   10     4     1    1.0000E+01  9.0919E-02   9.9091E+00  0.000E+00  0.000E+00  0.000E+00  1.07836E+03  6.368E-01  1.000E+01  2.500E-02  1.212E+00
   1    5    9     4     2    9.9091E+00  1.8158E-01   9.7275E+00  0.000E+00  0.000E+00  0.000E+00  1.07154E+03  6.315E-01  1.000E+01  5.000E-02  1.211E+00
   1    6    8     4     3    9.7275E+00  1.2689E-01   9.6006E+00  0.000E+00  0.000E+00  0.000E+00  1.06381E+03  6.256E-01  1.000E+01  3.500E-02  1.209E+00
   1    6    8     5     1    1.0432E+01  2.2686E-01   1.0205E+01  0.000E+00  0.000E+00  0.000E+00  1.05868E+03  6.790E-01  1.542E+01  6.166E-02  1.226E+00
   1    7    7     5     2    1.0205E+01  2.7894E-01   9.9265E+00  0.000E+00  0.000E+00  0.000E+00  1.05417E+03  6.732E-01  1.519E+01  7.594E-02  1.224E+00
   1    8    7     5     3    9.9265E+00  1.9221E-01   9.7343E+00  0.000E+00  0.000E+00  0.000E+00  1.04992E+03  6.676E-01  1.497E+01  5.241E-02  1.223E+00
   1    8    6     5     4    9.7343E+00  1.3577E-01   9.5985E+00  0.000E+00  0.000E+00  0.000E+00  1.04691E+03  6.637E-01  1.482E+01  3.706E-02  1.221E+00
   1    9    6     6     1    2.6146E+01  2.5505E-01   2.5891E+01  0.000E+00  0.000E+00  0.000E+00  1.04398E+03  1.251E+00  1.200E+01  6.000E-02  1.417E+00
   1   10    7     6     2    2.5891E+01  2.5461E-01   2.5637E+01  0.000E+00  0.000E+00  0.000E+00  1.03943E+03  1.243E+00  1.200E+01  6.000E-02  1.414E+00
   1   11    7     6     3    2.5637E+01  2.5416E-01   2.5383E+01  0.000E+00  0.000E+00  0.000E+00  1.03487E+03  1.236E+00  1.200E+01  6.000E-02  1.412E+00
   1   12    7     6     4    2.5383E+01  2.5372E-01   2.5129E+01  0.000E+00  0.000E+00  0.000E+00  1.03032E+03  1.229E+00  1.200E+01  6.000E-02  1.410E+00
   1   13    7     6     5    2.5129E+01  4.0719E-03   2.5125E+01  0.000E+00  0.000E+00  0.000E+00  1.02713E+03  1.225E+00  1.200E+01  2.400E-02  5.655E-02
   1   14    9     7     1    1.5000E+02  1.1568E+00   1.4884E+02  0.000E+00  0.000E+00  0.000E+00  1.03987E+03  2.288E+00  5.530E+01  5.593E-01  6.894E-01
   1   13    8     7     2    1.4884E+02  1.6769E+00   1.4717E+02  0.000E+00  0.000E+00  0.000E+00  1.03478E+03  2.281E+00  5.526E+01  6.148E-01  9.091E-01
   1   13    7     7     3    1.4717E+02  1.5232E+00   1.4564E+02  0.000E+00  0.000E+00  0.000E+00  1.02969E+03  2.272E+00  5.522E+01  5.585E-01  9.091E-01
   1   13    6     8     1    1.7077E+02  1.0074E+00   1.6976E+02  0.000E+00  0.000E+00  0.000E+00  1.02483E+03  2.954E+00  4.283E+01  4.365E-01  7.694E-01
   1   13    5     8     2    1.6976E+02  2.3504E-01   1.6953E+02  0.000E+00  0.000E+00  0.000E+00  1.01857E+03  2.950E+00  4.277E+01  4.359E-01  1.797E-01
   1   13    4     8     3    1.6953E+02 -2.3977E+00   1.7192E+02  0.000E+00  0.000E+00  0.000E+00  1.01233E+03  2.957E+00  4.288E+01  4.369E+00 -1.829E-01
   1   13    3     8     4    1.7192E+02 -3.5267E+00   1.7545E+02  0.000E+00  0.000E+00  0.000E+00  1.00610E+03  2.976E+00  4.315E+01  4.397E+00 -2.673E-01
   1   13    2     8     5    1.7545E+02 -2.0513E+00   1.7750E+02  0.000E+00  0.000E+00  0.000E+00  9.99869E+02  2.994E+00  4.341E+01  4.424E+00 -1.546E-01
   1   13    1     8     6    1.7750E+02 -1.2552E+00   1.7876E+02  0.000E+00  0.000E+00  0.000E+00  9.94879E+02  3.004E+00  4.356E+01  2.664E+00 -1.571E-01
   1    6    8     9     1    4.5881E-02  0.0000E+00   4.5881E-02  0.000E+00  0.000E+00  0.000E+00  1.07852E+03  2.023E-02  4.000E+00  0.000E+00  1.007E+00



 UBDSV3 SAVING "     NETRECHARGE" ON UNIT 100 AT TIME STEP    15, STRESS PERIOD  10
 UBDSV3 SAVING "    NETDISCHARGE" ON UNIT 101 AT TIME STEP    15, STRESS PERIOD  10
 UBDSV3 SAVING "           GW ET" ON UNIT  61 AT TIME STEP    15, STRESS PERIOD  10
 UBDSV3 SAVING "    UZF RECHARGE" ON UNIT  61 AT TIME STEP    15, STRESS PERIOD  10
 UBDSV3 SAVING " SURFACE LEAKAGE" ON UNIT  61 AT TIME STEP    15, STRESS PERIOD  10
 UBDSV3 SAVING "       HORT+DUNN" ON UNIT  61 AT TIME STEP    15, STRESS PERIOD  10
 UBDSV3 SAVING "  STORAGE CHANGE" ON UNIT  61 AT TIME STEP    15, STRESS PERIOD  10


UNSATURATED ZONE PACKAGE VOLUMETRIC BUDGET FOR  TIME STEP    15 STRESS PERIOD   10
  ------------------------------------------------------------------------------



     CUMULATIVE VOLUMES      L**3       RATES FOR THIS TIME STEP      L**3/T
     ------------------                 ------------------------

           IN:                                      IN:
           ---                                      ---
        INFILTRATION =    24311426.3644          INFILTRATION =           0.0451

          OUT:                                     OUT:
          ----                                     ----
              UZF ET =   550515834.6956                UZF ET =           2.2434
        UZF RECHARGE =   567657419.6520          UZF RECHARGE =          22.6718

            IN - OUT = -1093861827.9833              IN - OUT =         -24.8701

          STORAGE:                                 STORAGE:
          --------                                 --------
      STORAGE CHANGE = -1093836401.3164        STORAGE CHANGE =         -24.8701

 PERCENT DISCREPANCY IS DIFFERENCE BETWEEN IN-OUT MINUS CHANGE IN STORAGE
 DIVIDED BY THE AVERAGE OF IN AND OUT TIMES 100

 PERCENT DISCREPANCY =          -0.00     PERCENT DISCREPANCY =           0.00






1
              HEAD IN LAYER   1 AT END OF TIME STEP    15 IN STRESS PERIOD   10
  -----------------------------------------------------------------------------

           1       2       3       4       5       6       7       8       9      10
 ...................................................................................
   1  1035.24 1033.44 6999.00 6999.00 6999.00 6999.00 6999.00 6999.00 6999.00 6999.00
   2  1034.68 1033.21 1032.18 6999.00 6999.00 1033.66 1033.87 1033.94 6999.00 6999.00
   3  6999.00 1032.32 1031.74 1031.35 1031.79 1032.44 1033.14 1033.32 6999.00 6999.00
   4  1031.67 1031.54 1031.01 1030.46 1030.41 1030.40 1031.12 1032.38 1032.27 6999.00
   5  1031.21 1030.68 1030.08 1029.59 1029.61 1029.78 1029.90 1030.38 1031.01 1031.43
   6  1030.62 1029.87 1029.19 1028.75 1028.81 1029.13 1029.39 1029.93 1030.83 1032.11
   7  1030.10 1028.86 1028.17 1027.78 1027.91 1028.33 1028.75 1029.29 1030.56 6999.00
   8  6999.00 1027.38 1026.90 1026.62 1026.81 1027.33 1027.77 1028.89 1030.13 6999.00
   9  6999.00 1025.15 1025.04 1025.05 1025.40 1026.08 1026.64 1027.97 1029.61 6999.00
  10  6999.00 1022.09 1022.43 1023.06 1023.80 1024.85 1025.84 1027.50 1029.61 1030.32
  11  6999.00 1017.23 1018.15 1020.39 1021.99 1023.76 1025.42 1027.78 1030.48 6999.00
  12  1003.24 1008.96 1012.68 1016.63 1019.84 1022.85 1025.45 1029.28 1032.87 6999.00
  13   995.35 1000.33 1006.90 1012.88 1018.04 1022.52 1026.96 1032.05 1035.25 6999.00
  14  6999.00 1007.48 1010.21 1014.77 1019.46 1023.88 1028.66 1033.98 1037.80 6999.00
  15  6999.00 6999.00 1014.62 1017.31 1020.75 1023.66 6999.00 6999.00 6999.00 6999.00

 HEAD WILL BE SAVED ON UNIT   62 AT END OF TIME STEP   15, STRESS PERIOD   10
1
  VOLUMETRIC BUDGET FOR ENTIRE MODEL AT END OF TIME STEP   15, STRESS PERIOD  10
  ------------------------------------------------------------------------------

     CUMULATIVE VOLUMES      L**3       RATES FOR THIS TIME STEP      L**3/T
     ------------------                 ------------------------

           IN:                                      IN:
           ---                                      ---
             STORAGE     =    31508588.0000               STORAGE     =           0.1028
       CONSTANT HEAD     =           0.0000         CONSTANT HEAD     =           0.0000
               WELLS     =           0.0000                 WELLS     =           0.0000
     HEAD DEP BOUNDS     =     6210616.0000       HEAD DEP BOUNDS     =           0.2736
      STREAM LEAKAGE     =   266163824.0000        STREAM LEAKAGE     =          11.4287
        UZF RECHARGE     =   567657472.0000          UZF RECHARGE     =          22.6718
               GW ET     =           0.0000                 GW ET     =           0.0000
     SURFACE LEAKAGE     =           0.0000       SURFACE LEAKAGE     =           0.0000
    SUPPLEMENTARY WELLS  =           0.0000      SUPPLEMENTARY WELLS  =           0.0000

                TOTAL IN =   871540480.0000                  TOTAL IN =          34.4769

          OUT:                                     OUT:
          ----                                     ----
             STORAGE     =   566059584.0000               STORAGE     =          22.3406
       CONSTANT HEAD     =           0.0000         CONSTANT HEAD     =           0.0000
               WELLS     =           0.0000                 WELLS     =           0.0000
     HEAD DEP BOUNDS     =     6460690.0000       HEAD DEP BOUNDS     =           0.2793
      STREAM LEAKAGE     =   219112016.0000        STREAM LEAKAGE     =           9.2309
        UZF RECHARGE     =           0.0000          UZF RECHARGE     =           0.0000
               GW ET     =    79778336.0000                 GW ET     =           2.6195
     SURFACE LEAKAGE     =           0.0000       SURFACE LEAKAGE     =           0.0000
    SUPPLEMENTARY WELLS  =       33755.6523      SUPPLEMENTARY WELLS  =       5.3036E-03

               TOTAL OUT =   871444288.0000                 TOTAL OUT =          34.4757

                IN - OUT =       96192.0000                  IN - OUT =       1.2093E-03

     PERCENT DISCREPANCY =           0.01         PERCENT DISCREPANCY =           0.00






         TIME SUMMARY AT END OF TIME STEP   15 IN STRESS PERIOD   10
                    SECONDS     MINUTES      HOURS       DAYS        YEARS
                    -----------------------------------------------------------
   TIME STEP LENGTH  87600.      1460.0      24.333      1.0139     2.77588E-03
 STRESS PERIOD TIME 1.31400E+06  21900.      365.00      15.208     4.16381E-02
         TOTAL TIME 2.24244E+07 3.73740E+05  6229.0      259.54     0.71059    
1
 
 SOLVING FOR HEAD 
                                                   Max.-Head-Change                         Max.-Flux-Residual
  Residual-Control   Outer-Iter.   Inner-Iter.     Column Row Layer    Maximum-Head-Change  Column Row Layer    Maximum-Flux-Residual          L2-NORM 
          0                 1           2             5   13     1       0.1146713075E-01       5   13    1         0.6151875368E+00      0.1765464818E+01
          0                 2           2             1    2     1       0.2223161878E-02       4   13    1         0.9194724528E-01      0.3987332917E+00
          0                 3           2             1    2     1       0.9982820456E-03       1    2    1         0.2594676739E-01      0.1385728658E+00
          0                 4           2             1    2     1       0.4481761528E-03       1    2    1         0.1165021468E-01      0.5983707894E-01
          0                 5           2             1    2     1       0.2011918786E-03       1    2    1         0.5230186069E-02      0.2672213731E-01
          0                 6           2             4    6     1       0.1166278632E-03       4    6    1         0.6593187368E-02      0.1364268040E-01
          0                 7           1             1    2     1       0.4054173906E-04       4    6    1        -0.2125806819E-02      0.5755166610E-02
          0                 8           2             4    6     1      -0.1070295695E-03       4    6    1        -0.6121586979E-02      0.6580920188E-02
          0                 9           2             4    6     1       0.1628719637E-03       4    6    1         0.9396590224E-02      0.9476242398E-02
          0                10           1             1    2     1       0.3667115862E-05       4    6    1        -0.1558233373E-03      0.5109897281E-03

    ------------------------------------------------
       NWT REQUIRED           10 OUTER ITERATIONS 
       AND A TOTAL OF         18 INNER ITERATIONS.
    ------------------------------------------------

 NO OUTPUT CONTROL FOR STRESS PERIOD   10   TIME STEP   16
 
 SOLVING FOR HEAD 
                                                   Max.-Head-Change                         Max.-Flux-Residual
  Residual-Control   Outer-Iter.   Inner-Iter.     Column Row Layer    Maximum-Head-Change  Column Row Layer    Maximum-Flux-Residual          L2-NORM 
          0                 1           2             5   13     1       0.1113167724E-01       5   13    1         0.5972089991E+00      0.1736883774E+01
          0                 2           2             1    2     1       0.2219855316E-02       4   13    1         0.9346578598E-01      0.3992587016E+00
          0                 3           2             1    2     1       0.9967980283E-03       1    2    1         0.2590818643E-01      0.1385599470E+00
          0                 4           2             1    2     1       0.4475098569E-03       1    2    1         0.1163289674E-01      0.5978746952E-01
          0                 5           2             1    2     1       0.2008926810E-03       1    2    1         0.5222410225E-02      0.2664023590E-01
          0                 6           1             1    2     1       0.9018045021E-04       1    2    1         0.2344378278E-02      0.1192246108E-01
          0                 7           1             1    2     1       0.4048139977E-04       1    2    1         0.1052383666E-02      0.5340438486E-02
          0                 8           1             1    2     1       0.1817174507E-04       1    2    1         0.4724071845E-03      0.2397399899E-02
          0                 9           1             1    2     1       0.8157121817E-05       4    6    1        -0.2535177066E-03      0.1101397223E-02

    ------------------------------------------------
       NWT REQUIRED            9 OUTER ITERATIONS 
       AND A TOTAL OF         14 INNER ITERATIONS.
    ------------------------------------------------

 NO OUTPUT CONTROL FOR STRESS PERIOD   10   TIME STEP   17
 
 SOLVING FOR HEAD 
                                                   Max.-Head-Change                         Max.-Flux-Residual
  Residual-Control   Outer-Iter.   Inner-Iter.     Column Row Layer    Maximum-Head-Change  Column Row Layer    Maximum-Flux-Residual          L2-NORM 
          0                 1           2             5   13     1       0.1080709921E-01       5   13    1         0.5798065256E+00      0.1710869052E+01
          0                 2           2             1    2     1       0.2216596083E-02       4   13    1         0.9467301592E-01      0.3980851777E+00
          0                 3           2             1    2     1       0.9953352488E-03       7   13    1        -0.3181506643E-01      0.1418442934E+00
          0                 4           2             1    2     1       0.4468530943E-03       1    2    1         0.1161582662E-01      0.5978637590E-01
          0                 5           2             1    2     1       0.2005977634E-03       1    2    1         0.5214745629E-02      0.2681731107E-01
          0                 6           2             4    6     1      -0.1348136487E-03       4    6    1        -0.7445775673E-02      0.1404627745E-01
          0                 7           2             4    6     1       0.1662577014E-03       4    6    1         0.9244522590E-02      0.1068678427E-01
          0                 8           1             4    6     1       0.4612558691E-04       4    6    1         0.2561921723E-02      0.3504351906E-02
          0                 9           1             1    2     1       0.8145126492E-05       4    6    1         0.4415323806E-03      0.1159238446E-02

    ------------------------------------------------
       NWT REQUIRED            9 OUTER ITERATIONS 
       AND A TOTAL OF         16 INNER ITERATIONS.
    ------------------------------------------------

 NO OUTPUT CONTROL FOR STRESS PERIOD   10   TIME STEP   18
 
 SOLVING FOR HEAD 
                                                   Max.-Head-Change                         Max.-Flux-Residual
  Residual-Control   Outer-Iter.   Inner-Iter.     Column Row Layer    Maximum-Head-Change  Column Row Layer    Maximum-Flux-Residual          L2-NORM 
          0                 1           2             5   13     1       0.1049298433E-01       5   13    1         0.5629579186E+00      0.1687204860E+01
          0                 2           2             1    2     1       0.2213338338E-02       4   13    1         0.9628292669E-01      0.3989035464E+00
          0                 3           2             1    2     1       0.9938731182E-03       7   13    1        -0.3039165376E-01      0.1414577210E+00
          0                 4           2             1    2     1       0.4461966209E-03       1    2    1         0.1159876405E-01      0.5971913105E-01
          0                 5           2             1    2     1       0.2003029750E-03       1    2    1         0.5207084401E-02      0.2661720054E-01
          0                 6           1             1    2     1       0.8991562939E-04       4    6    1        -0.4295003110E-02      0.1264794255E-01
          0                 7           1             4    6     1       0.6137509585E-04       4    6    1         0.3409113395E-02      0.6331387393E-02
          0                 8           1             1    2     1       0.1811833686E-04       4    6    1        -0.8708296625E-03      0.2542151820E-02
          0                 9           1             4    6     1      -0.9579437913E-04       4    6    1        -0.5379003124E-02      0.5487002042E-02
          0                10           2             4    6     1       0.1109346861E-03       4    6    1         0.6285362908E-02      0.6318267649E-02
                                                   Max.-Head-Change                         Max.-Flux-Residual
  Residual-Control   Outer-Iter.   Inner-Iter.     Column Row Layer    Maximum-Head-Change  Column Row Layer    Maximum-Flux-Residual          L2-NORM 
          0                11           1             4    6     1      -0.2125789561E-04       4    6    1        -0.1216513517E-02      0.1237064729E-02
          0                12           1             4    6     1       0.2964154618E-05       4    6    1         0.1709309124E-03      0.2778985169E-03

    ------------------------------------------------
       NWT REQUIRED           12 OUTER ITERATIONS 
       AND A TOTAL OF         18 INNER ITERATIONS.
    ------------------------------------------------

 NO OUTPUT CONTROL FOR STRESS PERIOD   10   TIME STEP   19
 
 SOLVING FOR HEAD 
                                                   Max.-Head-Change                         Max.-Flux-Residual
  Residual-Control   Outer-Iter.   Inner-Iter.     Column Row Layer    Maximum-Head-Change  Column Row Layer    Maximum-Flux-Residual          L2-NORM 
          0                 1           2             5   13     1       0.1018907690E-01       5   13    1         0.5466507038E+00      0.1665663746E+01
          0                 2           2             1    2     1       0.2210096834E-02       4   13    1         0.9766621019E-01      0.3996164449E+00
          0                 3           2             1    2     1       0.9924182692E-03       7   13    1        -0.2897380570E-01      0.1410842868E+00
          0                 4           2             1    2     1       0.4455434151E-03       1    2    1         0.1158178642E-01      0.5965118362E-01
          0                 5           2             1    2     1       0.2000096540E-03       1    2    1         0.5199461303E-02      0.2655455869E-01
          0                 6           1             1    2     1       0.8978390666E-04       1    2    1         0.2334072899E-02      0.1188370203E-01
          0                 7           1             1    2     1       0.4030331946E-04       1    2    1         0.1047755771E-02      0.5322130442E-02
          0                 8           1             1    2     1       0.1809177156E-04       1    2    1         0.4703288731E-03      0.2384472888E-02
          0                 9           1             1    2     1       0.8121206872E-05       1    2    1         0.2111259571E-03      0.1071784513E-02

    ------------------------------------------------
       NWT REQUIRED            9 OUTER ITERATIONS 
       AND A TOTAL OF         14 INNER ITERATIONS.
    ------------------------------------------------

 NO OUTPUT CONTROL FOR STRESS PERIOD   10   TIME STEP   20
 
 SOLVING FOR HEAD 
                                                   Max.-Head-Change                         Max.-Flux-Residual
  Residual-Control   Outer-Iter.   Inner-Iter.     Column Row Layer    Maximum-Head-Change  Column Row Layer    Maximum-Flux-Residual          L2-NORM 
          0                 1           2             5   13     1       0.9895320689E-02       5   13    1         0.5308839142E+00      0.1646012893E+01
          0                 2           2             1    2     1       0.2206904143E-02       4   13    1         0.9907189499E-01      0.4003859933E+00
          0                 3           2             1    2     1       0.9909853208E-03       7   13    1        -0.2761919137E-01      0.1406621048E+00
          0                 4           2             1    2     1       0.4449000400E-03       1    2    1         0.1156506437E-01      0.5957833282E-01
          0                 5           2             1    2     1       0.1997207465E-03       1    2    1         0.5191952933E-02      0.2654024989E-01
          0                 6           1             4    6     1      -0.9338434054E-04       4    6    1        -0.5162756523E-02      0.1294522868E-01
          0                 7           2             4    6     1      -0.1595859360E-03       4    6    1        -0.8802500793E-02      0.1028674675E-01
          0                 8           2             4    6     1      -0.7191844265E-01       4    6    1        -0.3964540940E+01      0.3964541710E+01
          0                 9           2             4    6     1       0.7399438893E-01       4    6    1         0.4117094525E+01      0.4121836500E+01
          0                10           2             4    6     1      -0.1478062912E-02       4    6    1        -0.8360089166E-01      0.8788387749E-01
                                                   Max.-Head-Change                         Max.-Flux-Residual
  Residual-Control   Outer-Iter.   Inner-Iter.     Column Row Layer    Maximum-Head-Change  Column Row Layer    Maximum-Flux-Residual          L2-NORM 
          0                11           2             4    6     1      -0.2689767408E-03       4    6    1        -0.1520684888E-01      0.1576509103E-01
          0                12           1             4    6     1      -0.4892576390E-04       4    6    1        -0.2767719691E-02      0.2966255132E-02
          0                13           1             3    6     1       0.1493483276E-04       4    6    1        -0.5032762454E-03      0.6538542263E-03
          0                14           1             3    6     1       0.6647765310E-05       3    6    1         0.1805269176E-03      0.2041548104E-03

    ------------------------------------------------
       NWT REQUIRED           14 OUTER ITERATIONS 
       AND A TOTAL OF         24 INNER ITERATIONS.
    ------------------------------------------------

 NO OUTPUT CONTROL FOR STRESS PERIOD   10   TIME STEP   21
 
 SOLVING FOR HEAD 
                                                   Max.-Head-Change                         Max.-Flux-Residual
  Residual-Control   Outer-Iter.   Inner-Iter.     Column Row Layer    Maximum-Head-Change  Column Row Layer    Maximum-Flux-Residual          L2-NORM 
          0                 1           2             5   13     1       0.9600013113E-02       5   13    1         0.5148964822E+00      0.1629240637E+01
          0                 2           2             1    2     1       0.2203705688E-02       4   13    1         0.9923553025E-01      0.4003380823E+00
          0                 3           2             1    2     1       0.9895497700E-03       7   13    1        -0.2687961033E-01      0.1403379314E+00
          0                 4           2             1    2     1       0.4442554953E-03       1    2    1         0.1154831193E-01      0.5950568010E-01
          0                 5           2             1    2     1       0.1994313137E-03       1    2    1         0.5184430910E-02      0.2659841797E-01
          0                 6           1             1    2     1       0.8952418935E-04       1    2    1         0.2327323375E-02      0.1204231568E-01
          0                 7           1             1    2     1       0.4018668518E-04       1    2    1         0.1044724717E-02      0.5323423307E-02
          0                 8           1             4    6     1       0.2458127546E-04       4    6    1         0.1390022997E-02      0.2759747938E-02
          0                 9           2             4    6     1      -0.2225645129E-03       4    6    1        -0.1272599733E-01      0.1277084935E-01
          0                10           1             2   13     1      -0.7036925662E-05       4   13    1        -0.4130169364E-03      0.9522585781E-03

    ------------------------------------------------
       NWT REQUIRED           10 OUTER ITERATIONS 
       AND A TOTAL OF         16 INNER ITERATIONS.
    ------------------------------------------------

 NO OUTPUT CONTROL FOR STRESS PERIOD   10   TIME STEP   22
 
 SOLVING FOR HEAD 
                                                   Max.-Head-Change                         Max.-Flux-Residual
  Residual-Control   Outer-Iter.   Inner-Iter.     Column Row Layer    Maximum-Head-Change  Column Row Layer    Maximum-Flux-Residual          L2-NORM 
          0                 1           2             5   13     1       0.9327603874E-02       5   13    1         0.5002813554E+00      0.1613315513E+01
          0                 2           2             1    2     1       0.2200510599E-02       4   13    1         0.1002416056E+00      0.4008717456E+00
          0                 3           2             1    2     1       0.9881157213E-03       1    2    1         0.2568247043E-01      0.1398200956E+00
          0                 4           2             1    2     1       0.4436116235E-03       1    2    1         0.1153157699E-01      0.5942607739E-01
          0                 5           2             1    2     1       0.1991421831E-03       1    2    1         0.5176916727E-02      0.2677474284E-01
     PET DIFF ERROR     6    4   -0.1171439584E-09    0.1499999902E-07
          0                 6           1             1    2     1       0.8939434870E-04       4    6    1        -0.2927586696E-02      0.1220824741E-01
     PET DIFF ERROR     6    4   -0.8556087610E-10    0.1499999902E-07
          0                 7           1             4    6     1      -0.8667789892E-04       4    6    1        -0.4783548784E-02      0.7163869714E-02
     PET DIFF ERROR     6    4   -0.2893897676E-09    0.1499999902E-07
          0                 8           1             4    6     1       0.4276351243E-04       4    6    1         0.2377386734E-02      0.3445929372E-02
     PET DIFF ERROR     6    4   -0.3004809262E-09    0.1499999902E-07
     PET DIFF ERROR     6    5   -0.4946771090E-10    0.1499999902E-07
     PET DIFF ERROR     7    4   -0.4946744899E-10    0.1499999902E-07
     PET DIFF ERROR     7    5   -0.4946754276E-10    0.1499999902E-07
     PET DIFF ERROR     8    4   -0.4946767914E-10    0.1499999902E-07
     PET DIFF ERROR     8    5   -0.4947165269E-10    0.1499999902E-07
          0                 9           1             4    6     1       0.4349402663E-04       4    6    1         0.2418200827E-02      0.2708244331E-02
     PET DIFF ERROR     6    4   -0.3429113204E-09    0.1499999902E-07
     PET DIFF ERROR     6    5   -0.1029688013E-09    0.1499999902E-07
     PET DIFF ERROR     7    4   -0.1029682578E-09    0.1499999902E-07
     PET DIFF ERROR     7    5   -0.1029684522E-09    0.1499999902E-07
     PET DIFF ERROR     8    4   -0.1029687352E-09    0.1499999902E-07
     PET DIFF ERROR     8    5   -0.1029769738E-09    0.1499999902E-07
          0                10           1             4    6     1      -0.1044417471E-03       4    6    1        -0.5864335753E-02      0.5905655094E-02
     PET DIFF ERROR     6    5   -0.5504584510E-10    0.1499999902E-07
     PET DIFF ERROR     7    4   -0.5504555356E-10    0.1499999902E-07
     PET DIFF ERROR     7    5   -0.5504565763E-10    0.1499999902E-07
     PET DIFF ERROR     8    4   -0.5504580949E-10    0.1499999902E-07
     PET DIFF ERROR     8    5   -0.5505022053E-10    0.1499999902E-07
                                                   Max.-Head-Change                         Max.-Flux-Residual
  Residual-Control   Outer-Iter.   Inner-Iter.     Column Row Layer    Maximum-Head-Change  Column Row Layer    Maximum-Flux-Residual          L2-NORM 
          0                11           2             4    6     1      -0.6915802523E-01       4    6    1        -0.3882476560E+01      0.3882476654E+01
     PET DIFF ERROR     6    5   -0.1051872563E-09    0.1499999902E-07
     PET DIFF ERROR     7    4   -0.1051867012E-09    0.1499999902E-07
     PET DIFF ERROR     7    5   -0.1051868992E-09    0.1499999902E-07
     PET DIFF ERROR     8    4   -0.1051871884E-09    0.1499999902E-07
     PET DIFF ERROR     8    5   -0.1051955865E-09    0.1499999902E-07
          0                12           2             4    6     1       0.6963630996E-01       4    6    1         0.3945794928E+01      0.3945960391E+01
          0                13           2             4    6     1      -0.5944109934E-01       4    6    1        -0.3398855944E+01      0.3398922309E+01
          0                14           2             4    6     1       0.2050334992E-01       4    6    1         0.1183385011E+01      0.1185082499E+01
          0                15           2             4    6     1       0.3659433689E-01       4    6    1         0.2111096756E+01      0.2111653673E+01
          0                16           2             4    6     1       0.1760888012E-02       4    6    1         0.1011847294E+00      0.1023059294E+00
          0                17           2             4    6     1       0.3646259209E-03       4    6    1         0.2092456034E-01      0.2134725170E-01
          0                18           1             4    6     1       0.7567213402E-04       4    6    1         0.4333996940E-02      0.4549664865E-02
          0                19           1             3    6     1       0.1826527536E-04       4    6    1         0.8998621502E-03      0.1050705630E-02
          0                20           1             3    6     1       0.8369525390E-05       3    6    1         0.2302155225E-03      0.3014662825E-03

    ------------------------------------------------
       NWT REQUIRED           20 OUTER ITERATIONS 
       AND A TOTAL OF         32 INNER ITERATIONS.
    ------------------------------------------------

 NO OUTPUT CONTROL FOR STRESS PERIOD   10   TIME STEP   23
 
 SOLVING FOR HEAD 
                                                   Max.-Head-Change                         Max.-Flux-Residual
  Residual-Control   Outer-Iter.   Inner-Iter.     Column Row Layer    Maximum-Head-Change  Column Row Layer    Maximum-Flux-Residual          L2-NORM 
          0                 1           2             5   13     1       0.9054338062E-02       5   13    1         0.4856223217E+00      0.1598776301E+01
          0                 2           2             1    2     1       0.2197354666E-02       4   13    1         0.1009494754E+00      0.4012139474E+00
     PET DIFF ERROR     6    4   -0.2309631832E-08    0.1499999902E-07
     PET DIFF ERROR     6    5   -0.2641235054E-08    0.1499999902E-07
     PET DIFF ERROR     7    4   -0.2641235030E-08    0.1499999902E-07
     PET DIFF ERROR     7    5   -0.2641235038E-08    0.1499999902E-07
     PET DIFF ERROR     8    4   -0.2641235049E-08    0.1499999902E-07
     PET DIFF ERROR     8    5   -0.2641235358E-08    0.1499999902E-07
          0                 3           2             4    6     1      -0.7243392614E-01       4    6    1        -0.3993471868E+01      0.3995907388E+01
     PET DIFF ERROR     6    5   -0.2641241898E-08    0.1499999902E-07
     PET DIFF ERROR     7    4   -0.2641241875E-08    0.1499999902E-07
     PET DIFF ERROR     7    5   -0.2641241883E-08    0.1499999902E-07
     PET DIFF ERROR     8    4   -0.2641241893E-08    0.1499999902E-07
     PET DIFF ERROR     8    5   -0.2641242202E-08    0.1499999902E-07
          0                 4           2             4    6     1       0.9270338283E-02       4    6    1         0.5163640696E+00      0.5205643495E+00
          0                 5           2             4    6     1       0.6415635382E-01       4    6    1         0.3569103868E+01      0.3569228825E+01
     PET DIFF ERROR     6    4   -0.1587869707E-09    0.1499999902E-07
     PET DIFF ERROR     6    5   -0.3705045186E-09    0.1499999902E-07
     PET DIFF ERROR     7    4   -0.3705045178E-09    0.1499999902E-07
     PET DIFF ERROR     7    5   -0.3705045180E-09    0.1499999902E-07
     PET DIFF ERROR     8    4   -0.3705045184E-09    0.1499999902E-07
     PET DIFF ERROR     8    5   -0.3705045302E-09    0.1499999902E-07
          0                 6           2             4    6     1      -0.5928701666E-01       4    6    1        -0.3329091974E+01      0.3329204856E+01
     PET DIFF ERROR     6    5   -0.4044914397E-09    0.1499999902E-07
     PET DIFF ERROR     7    4   -0.4044914377E-09    0.1499999902E-07
     PET DIFF ERROR     7    5   -0.4044914383E-09    0.1499999902E-07
     PET DIFF ERROR     8    4   -0.4044914393E-09    0.1499999902E-07
     PET DIFF ERROR     8    5   -0.4044914659E-09    0.1499999902E-07
          0                 7           2             4    6     1       0.7484762777E-03       4    6    1         0.4288278338E-01      0.4677108808E-01
     PET DIFF ERROR     6    5   -0.4076540839E-09    0.1499999902E-07
     PET DIFF ERROR     7    4   -0.4076540772E-09    0.1499999902E-07
     PET DIFF ERROR     7    5   -0.4076540793E-09    0.1499999902E-07
     PET DIFF ERROR     8    4   -0.4076545335E-09    0.1499999902E-07
     PET DIFF ERROR     8    5   -0.4076541680E-09    0.1499999902E-07
          0                 8           2             4    6     1       0.6862493306E-03       4    6    1         0.3896687789E-01      0.3922366529E-01
     PET DIFF ERROR     6    5   -0.2166750115E-09    0.1499999902E-07
     PET DIFF ERROR     7    4   -0.2166749998E-09    0.1499999902E-07
     PET DIFF ERROR     7    5   -0.2166750034E-09    0.1499999902E-07
     PET DIFF ERROR     8    4   -0.2166764981E-09    0.1499999902E-07
     PET DIFF ERROR     8    5   -0.2166751585E-09    0.1499999902E-07
          0                 9           2             4    6     1       0.6977395058E-03       4    6    1         0.3954184308E-01      0.3960887542E-01
          0                10           2             4    6     1       0.5582852699E-01       4    6    1         0.3162825826E+01      0.3162826017E+01
                                                   Max.-Head-Change                         Max.-Flux-Residual
  Residual-Control   Outer-Iter.   Inner-Iter.     Column Row Layer    Maximum-Head-Change  Column Row Layer    Maximum-Flux-Residual          L2-NORM 
          0                11           2             4    6     1       0.3927111196E-03       4    6    1         0.2166302942E-01      0.3058667303E-01
          0                12           1             3    6     1       0.1146365509E-03       4    6    1         0.4289981282E-02      0.6692841725E-02
          0                13           1             3    6     1       0.5247981691E-04       3    6    1         0.1445016184E-02      0.1863803872E-02
          0                14           1             3    6     1       0.2398161043E-04       3    6    1         0.6612244398E-03      0.7033288611E-03
          0                15           1             3    6     1       0.1095059330E-04       3    6    1         0.3020989626E-03      0.3067724642E-03
          0                16           1             3    6     1       0.4998803877E-05       3    6    1         0.1379332115E-03      0.1387875930E-03

    ------------------------------------------------
       NWT REQUIRED           16 OUTER ITERATIONS 
       AND A TOTAL OF         27 INNER ITERATIONS.
    ------------------------------------------------

 NO OUTPUT CONTROL FOR STRESS PERIOD   10   TIME STEP   24
 
 SOLVING FOR HEAD 
     PET DIFF ERROR     6    4   -0.3327712255E-08    0.1499999902E-07
     PET DIFF ERROR     6    5   -0.3444022260E-08    0.1499999902E-07
     PET DIFF ERROR     7    4   -0.3444022238E-08    0.1499999902E-07
     PET DIFF ERROR     7    5   -0.3444022245E-08    0.1499999902E-07
     PET DIFF ERROR     8    4   -0.3444022255E-08    0.1499999902E-07
     PET DIFF ERROR     8    5   -0.3444022547E-08    0.1499999902E-07
                                                   Max.-Head-Change                         Max.-Flux-Residual
  Residual-Control   Outer-Iter.   Inner-Iter.     Column Row Layer    Maximum-Head-Change  Column Row Layer    Maximum-Flux-Residual          L2-NORM 
          0                 1           2             5   13     1       0.8795802843E-02       5   13    1         0.4717727226E+00      0.1584442448E+01
          0                 2           2             1    2     1       0.2194219674E-02       4   13    1         0.8715846033E-01      0.3917717223E+00
     PET DIFF ERROR     6    4   -0.5414104353E-08    0.1499999902E-07
     PET DIFF ERROR     6    5   -0.5953156656E-08    0.1499999902E-07
     PET DIFF ERROR     7    4   -0.5953156630E-08    0.1499999902E-07
     PET DIFF ERROR     7    5   -0.5953156639E-08    0.1499999902E-07
     PET DIFF ERROR     8    4   -0.5953156650E-08    0.1499999902E-07
     PET DIFF ERROR     8    5   -0.5953156977E-08    0.1499999902E-07
          0                 3           2             4    6     1      -0.6277314946E-01       4    6    1        -0.3460907760E+01      0.3463668180E+01
     PET DIFF ERROR     6    5   -0.5953156656E-08    0.1499999902E-07
     PET DIFF ERROR     7    4   -0.5953156630E-08    0.1499999902E-07
     PET DIFF ERROR     7    5   -0.5953156639E-08    0.1499999902E-07
     PET DIFF ERROR     8    4   -0.5953156650E-08    0.1499999902E-07
     PET DIFF ERROR     8    5   -0.5953156977E-08    0.1499999902E-07
          0                 4           2             4    6     1       0.2245695938E-01       4    6    1         0.1249857276E+01      0.1252646306E+01
     PET DIFF ERROR     6    5   -0.3212785427E-09    0.1499999902E-07
     PET DIFF ERROR     7    4   -0.3212785269E-09    0.1499999902E-07
     PET DIFF ERROR     7    5   -0.3212785326E-09    0.1499999902E-07
     PET DIFF ERROR     8    4   -0.3212785391E-09    0.1499999902E-07
     PET DIFF ERROR     8    5   -0.3212787264E-09    0.1499999902E-07
          0                 5           2             4    6     1       0.1594577007E-01       4    6    1         0.8869419853E+00      0.8884152472E+00
          0                 6           2             4    6     1       0.2252388869E-01       4    6    1         0.1252823580E+01      0.1252902117E+01
          0                 7           2             4    6     1       0.1647723503E-02       4    6    1         0.9138594439E-01      0.9211245620E-01
          0                 8           2             4    6     1       0.2923863572E-03       4    6    1         0.1619003889E-01      0.1663673247E-01
          0                 9           1             4    6     1       0.5205734503E-04       4    6    1         0.2875061511E-02      0.3235176524E-02
          0                10           1             3    6     1       0.1512418578E-04       4    6    1         0.5125479670E-03      0.8140326698E-03
          0                11           1             3    6     1       0.6633685698E-05       3    6    1         0.1758106193E-03      0.2931087411E-03

    ------------------------------------------------
       NWT REQUIRED           11 OUTER ITERATIONS 
       AND A TOTAL OF         19 INNER ITERATIONS.
    ------------------------------------------------

 NO OUTPUT CONTROL FOR STRESS PERIOD   10   TIME STEP   25
 
 SOLVING FOR HEAD 
                                                   Max.-Head-Change                         Max.-Flux-Residual
  Residual-Control   Outer-Iter.   Inner-Iter.     Column Row Layer    Maximum-Head-Change  Column Row Layer    Maximum-Flux-Residual          L2-NORM 
          0                 1           2             6   13     1       0.8546059843E-02       5   13    1         0.4579816852E+00      0.1572101976E+01
          0                 2           2             1    2     1       0.2191106620E-02       4   13    1         0.1021823760E+00      0.4018369726E+00
     PET DIFF ERROR     6    4   -0.2376467864E-08    0.1499999902E-07
     PET DIFF ERROR     6    5   -0.2662677774E-08    0.1499999902E-07
     PET DIFF ERROR     7    4   -0.2662677752E-08    0.1499999902E-07
     PET DIFF ERROR     7    5   -0.2662677758E-08    0.1499999902E-07
     PET DIFF ERROR     8    4   -0.2662677769E-08    0.1499999902E-07
     PET DIFF ERROR     8    5   -0.2662678069E-08    0.1499999902E-07
          0                 3           2             4    6     1      -0.7243415814E-01       4    6    1        -0.3993488694E+01      0.3995902597E+01
     PET DIFF ERROR     6    5   -0.2662683119E-08    0.1499999902E-07
     PET DIFF ERROR     7    4   -0.2662683097E-08    0.1499999902E-07
     PET DIFF ERROR     7    5   -0.2662683105E-08    0.1499999902E-07
     PET DIFF ERROR     8    4   -0.2662683115E-08    0.1499999902E-07
     PET DIFF ERROR     8    5   -0.2662683415E-08    0.1499999902E-07
          0                 4           2             4    6     1       0.9364345904E-02       4    6    1         0.5215946329E+00      0.5257441071E+00
          0                 5           2             4    6     1       0.6409639010E-01       4    6    1         0.3565771215E+01      0.3565896304E+01
     PET DIFF ERROR     6    4   -0.4439819821E-09    0.1499999902E-07
     PET DIFF ERROR     6    5   -0.3078751459E-09    0.1499999902E-07
     PET DIFF ERROR     7    4   -0.3078751467E-09    0.1499999902E-07
     PET DIFF ERROR     7    5   -0.3078751464E-09    0.1499999902E-07
     PET DIFF ERROR     8    4   -0.3078751461E-09    0.1499999902E-07
     PET DIFF ERROR     8    5   -0.3078751392E-09    0.1499999902E-07
          0                 6           2             4    6     1      -0.5920659290E-01       4    6    1        -0.3324580309E+01      0.3324693156E+01
     PET DIFF ERROR     6    5   -0.3560791197E-09    0.1499999902E-07
     PET DIFF ERROR     7    4   -0.3560791202E-09    0.1499999902E-07
     PET DIFF ERROR     7    5   -0.3560791200E-09    0.1499999902E-07
     PET DIFF ERROR     8    4   -0.3560791198E-09    0.1499999902E-07
     PET DIFF ERROR     8    5   -0.3560791172E-09    0.1499999902E-07
          0                 7           2             4    6     1       0.7268162903E-03       4    6    1         0.4165497235E-01      0.4563494848E-01
     PET DIFF ERROR     6    5   -0.4972011835E-09    0.1499999902E-07
     PET DIFF ERROR     7    4   -0.4972011814E-09    0.1499999902E-07
     PET DIFF ERROR     7    5   -0.4972011822E-09    0.1499999902E-07
     PET DIFF ERROR     8    4   -0.4972011831E-09    0.1499999902E-07
     PET DIFF ERROR     8    5   -0.4972012095E-09    0.1499999902E-07
          0                 8           2             4    6     1       0.5976030875E-03       4    6    1         0.3394485374E-01      0.3422599852E-01
     PET DIFF ERROR     6    5   -0.5321951131E-09    0.1499999902E-07
     PET DIFF ERROR     7    4   -0.5321951070E-09    0.1499999902E-07
     PET DIFF ERROR     7    5   -0.5321951092E-09    0.1499999902E-07
     PET DIFF ERROR     8    4   -0.5321951117E-09    0.1499999902E-07
     PET DIFF ERROR     8    5   -0.5321951817E-09    0.1499999902E-07
          0                 9           2             4    6     1       0.8711446923E-03       4    6    1         0.4936675360E-01      0.4944194608E-01
     PET DIFF ERROR     6    5   -0.3329317672E-09    0.1499999902E-07
     PET DIFF ERROR     7    4   -0.3329317551E-09    0.1499999902E-07
     PET DIFF ERROR     7    5   -0.3329317596E-09    0.1499999902E-07
     PET DIFF ERROR     8    4   -0.3329317645E-09    0.1499999902E-07
     PET DIFF ERROR     8    5   -0.3329318985E-09    0.1499999902E-07
          0                10           2             4    6     1       0.9212177257E-03       4    6    1         0.5218427430E-01      0.5224949826E-01
                                                   Max.-Head-Change                         Max.-Flux-Residual
  Residual-Control   Outer-Iter.   Inner-Iter.     Column Row Layer    Maximum-Head-Change  Column Row Layer    Maximum-Flux-Residual          L2-NORM 
          0                11           2             4    6     1       0.5466709151E-01       4    6    1         0.3096995405E+01      0.3096995803E+01
          0                12           2             4    6     1       0.4433067027E-03       4    6    1         0.2453952390E-01      0.3243515663E-01
          0                13           1             3    6     1       0.1142611262E-03       4    6    1         0.4837257248E-02      0.7017784953E-02
          0                14           1             3    6     1       0.5232725841E-04       3    6    1         0.1440389422E-02      0.1906692887E-02
          0                15           1             3    6     1       0.2391500946E-04       3    6    1         0.6593123503E-03      0.7061690028E-03
          0                16           1             3    6     1       0.1092052492E-04       3    6    1         0.3012573754E-03      0.3062484328E-03
          0                17           1             3    6     1       0.4985031590E-05       3    6    1         0.1375519215E-03      0.1383806949E-03

    ------------------------------------------------
       NWT REQUIRED           17 OUTER ITERATIONS 
       AND A TOTAL OF         29 INNER ITERATIONS.
    ------------------------------------------------

 NO OUTPUT CONTROL FOR STRESS PERIOD   10   TIME STEP   26
 
 SOLVING FOR HEAD 
     PET DIFF ERROR     6    4   -0.2359043132E-08    0.1499999902E-07
     PET DIFF ERROR     6    5   -0.2741061384E-08    0.1499999902E-07
     PET DIFF ERROR     7    4   -0.2741061360E-08    0.1499999902E-07
     PET DIFF ERROR     7    5   -0.2741061367E-08    0.1499999902E-07
     PET DIFF ERROR     8    4   -0.2741061377E-08    0.1499999902E-07
     PET DIFF ERROR     8    5   -0.2741061682E-08    0.1499999902E-07
                                                   Max.-Head-Change                         Max.-Flux-Residual
  Residual-Control   Outer-Iter.   Inner-Iter.     Column Row Layer    Maximum-Head-Change  Column Row Layer    Maximum-Flux-Residual          L2-NORM 
          0                 1           2             6   13     1       0.8346770628E-02       5   13    1         0.4450706871E+00      0.1559983903E+01
          0                 2           2             1    2     1       0.2187991725E-02       4   13    1         0.9218566228E-01      0.3946906853E+00
     PET DIFF ERROR     6    4   -0.5918243963E-08    0.1499999902E-07
     PET DIFF ERROR     6    5   -0.6433407605E-08    0.1499999902E-07
     PET DIFF ERROR     7    4   -0.6433407564E-08    0.1499999902E-07
     PET DIFF ERROR     7    5   -0.6433407577E-08    0.1499999902E-07
     PET DIFF ERROR     8    4   -0.6433407594E-08    0.1499999902E-07
     PET DIFF ERROR     8    5   -0.6433408101E-08    0.1499999902E-07
          0                 3           2             4    6     1      -0.6533459715E-01       4    6    1        -0.3602115344E+01      0.3604755708E+01
     PET DIFF ERROR     6    5   -0.6433405387E-08    0.1499999902E-07
     PET DIFF ERROR     7    4   -0.6433405347E-08    0.1499999902E-07
     PET DIFF ERROR     7    5   -0.6433405360E-08    0.1499999902E-07
     PET DIFF ERROR     8    4   -0.6433406485E-08    0.1499999902E-07
     PET DIFF ERROR     8    5   -0.6433405884E-08    0.1499999902E-07
          0                 4           2             4    6     1       0.2566278729E-01       4    6    1         0.1428231088E+01      0.1431010497E+01
          0                 5           2             4    6     1       0.3894849234E-01       4    6    1         0.2166586276E+01      0.2167321823E+01
          0                 6           2             4    6     1       0.7214687898E-03       4    6    1         0.3969203982E-01      0.4475344203E-01
          0                 7           2             4    6     1       0.1297000066E-03       4    6    1         0.7115858669E-02      0.9718001177E-02
          0                 8           1             3    6     1       0.4524451949E-04       4    6    1         0.1281017615E-02      0.2993635174E-02
          0                 9           1             3    6     1       0.1986579544E-04       3    6    1         0.5260102611E-03      0.1209220861E-02
          0                10           1             3    6     1       0.8710078567E-05       3    6    1         0.2308520319E-03      0.5297552293E-03

    ------------------------------------------------
       NWT REQUIRED           10 OUTER ITERATIONS 
       AND A TOTAL OF         17 INNER ITERATIONS.
    ------------------------------------------------

 NO OUTPUT CONTROL FOR STRESS PERIOD   10   TIME STEP   27
 
 SOLVING FOR HEAD 
                                                   Max.-Head-Change                         Max.-Flux-Residual
  Residual-Control   Outer-Iter.   Inner-Iter.     Column Row Layer    Maximum-Head-Change  Column Row Layer    Maximum-Flux-Residual          L2-NORM 
          0                 1           2             6   13     1       0.8158787305E-02       6   13    1         0.4339795976E+00      0.1547094082E+01
          0                 2           2             1    2     1       0.2184920952E-02       4   13    1         0.1029019152E+00      0.4021273693E+00
     PET DIFF ERROR     6    5   -0.1459446925E-08    0.1499999902E-07
     PET DIFF ERROR     7    4   -0.1459446890E-08    0.1499999902E-07
     PET DIFF ERROR     7    5   -0.1459446901E-08    0.1499999902E-07
     PET DIFF ERROR     8    4   -0.1459446915E-08    0.1499999902E-07
     PET DIFF ERROR     8    5   -0.1459447334E-08    0.1499999902E-07
          0                 3           2             4    6     1      -0.7243437662E-01       4    6    1        -0.3993504770E+01      0.3995905444E+01
     PET DIFF ERROR     6    5   -0.1459459992E-08    0.1499999902E-07
     PET DIFF ERROR     7    4   -0.1459459957E-08    0.1499999902E-07
     PET DIFF ERROR     7    5   -0.1459459968E-08    0.1499999902E-07
     PET DIFF ERROR     8    4   -0.1459459982E-08    0.1499999902E-07
     PET DIFF ERROR     8    5   -0.1459460400E-08    0.1499999902E-07
          0                 4           2             4    6     1       0.5762557058E-02       4    6    1         0.3212217499E+00      0.3275226813E+00
          0                 5           2             4    6     1       0.6805168738E-01       4    6    1         0.3785849059E+01      0.3785946525E+01
          0                 6           2             4    6     1      -0.1309902070E-02       4    6    1        -0.7424377313E-01      0.7952994496E-01
          0                 7           2             3    6     1       0.1322609634E-03       4    6    1        -0.7308602251E-02      0.1048057354E-01
          0                 8           1             4    6     1      -0.6923384020E-04       4    6    1        -0.3917095393E-02      0.4911735166E-02
          0                 9           1             4    6     1      -0.7024856357E-04       4    6    1        -0.3952159142E-02      0.4202239570E-02
          0                10           1             4    6     1       0.5654431119E-04       4    6    1         0.3200944229E-02      0.3344814364E-02
                                                   Max.-Head-Change                         Max.-Flux-Residual
  Residual-Control   Outer-Iter.   Inner-Iter.     Column Row Layer    Maximum-Head-Change  Column Row Layer    Maximum-Flux-Residual          L2-NORM 
          0                11           1             4    6     1      -0.4510708481E-04       4    6    1        -0.2580562262E-02      0.2658976729E-02
          0                12           1             4    6     1       0.6165362109E-04       4    6    1         0.3556775496E-02      0.3637767521E-02
          0                13           1             4    6     1      -0.5280717231E-04       4    6    1        -0.3075195213E-02      0.3123776185E-02
          0                14           1             4    6     1       0.4692149554E-04       4    6    1         0.2756930298E-02      0.2856162952E-02
          0                15           1             4    6     1      -0.4087431917E-04       4    6    1        -0.2423654291E-02      0.2488835882E-02
          0                16           1             4    6     1       0.2560254275E-04       4    6    1         0.1531947604E-02      0.1695385296E-02
          0                17           1             4    6     1      -0.4905412607E-04       4    6    1        -0.2961460431E-02      0.3024166134E-02
          0                18           1             4    6     1       0.2159283382E-04       4    6    1         0.1315792233E-02      0.1531677422E-02
     PET DIFF ERROR     6    4   -0.1234813539E-09    0.1499999902E-07
          0                19           1             4    6     1       0.2177231063E-04       4    6    1         0.1326149987E-02      0.1486575509E-02
     PET DIFF ERROR     6    4   -0.1411053679E-09    0.1499999902E-07
          0                20           1             4    6     1      -0.4956405813E-04       4    6    1        -0.3046807963E-02      0.3111461554E-02
     PET DIFF ERROR     6    4   -0.1662850199E-09    0.1499999902E-07
          0                21           1             2   13     1      -0.7691739313E-05       4   13    1        -0.4488749582E-03      0.8303486296E-03

    ------------------------------------------------
       NWT REQUIRED           21 OUTER ITERATIONS 
       AND A TOTAL OF         28 INNER ITERATIONS.
    ------------------------------------------------

 NO OUTPUT CONTROL FOR STRESS PERIOD   10   TIME STEP   28
     PET DIFF ERROR     6    4   -0.1860504138E-09    0.1499999902E-07
 
 SOLVING FOR HEAD 
                                                   Max.-Head-Change                         Max.-Flux-Residual
  Residual-Control   Outer-Iter.   Inner-Iter.     Column Row Layer    Maximum-Head-Change  Column Row Layer    Maximum-Flux-Residual          L2-NORM 
          0                 1           2             6   13     1       0.7970219786E-02       6   13    1         0.4237813767E+00      0.1538691437E+01
          0                 2           2             1    2     1       0.2181846193E-02       4   13    1         0.7163327868E-01      0.3821128568E+00
     PET DIFF ERROR     6    4   -0.3662402341E-09    0.1499999902E-07
     PET DIFF ERROR     6    5   -0.1671644788E-08    0.1499999902E-07
     PET DIFF ERROR     7    4   -0.1671644752E-08    0.1499999902E-07
     PET DIFF ERROR     7    5   -0.1671644764E-08    0.1499999902E-07
     PET DIFF ERROR     8    4   -0.1671644778E-08    0.1499999902E-07
     PET DIFF ERROR     8    5   -0.1671645207E-08    0.1499999902E-07
          0                 3           2             4    6     1      -0.5103383112E-01       4    6    1        -0.2813763486E+01      0.2817075248E+01
     PET DIFF ERROR     6    5   -0.1671644788E-08    0.1499999902E-07
     PET DIFF ERROR     7    4   -0.1671644752E-08    0.1499999902E-07
     PET DIFF ERROR     7    5   -0.1671644764E-08    0.1499999902E-07
     PET DIFF ERROR     8    4   -0.1671644778E-08    0.1499999902E-07
     PET DIFF ERROR     8    5   -0.1671645207E-08    0.1499999902E-07
          0                 4           2             4    6     1       0.4141280620E-02       4    6    1         0.2308041995E+00      0.2388391004E+00
     PET DIFF ERROR     6    5   -0.2332554952E-08    0.1499999902E-07
     PET DIFF ERROR     7    4   -0.2332554914E-08    0.1499999902E-07
     PET DIFF ERROR     7    5   -0.2332554926E-08    0.1499999902E-07
     PET DIFF ERROR     8    4   -0.2332552953E-08    0.1499999902E-07
     PET DIFF ERROR     8    5   -0.2332555388E-08    0.1499999902E-07
          0                 5           2             4    6     1       0.3048942406E-02       4    6    1         0.1696405509E+00      0.1718480038E+00
     PET DIFF ERROR     6    5   -0.1851334515E-08    0.1499999902E-07
     PET DIFF ERROR     7    4   -0.1851334510E-08    0.1499999902E-07
     PET DIFF ERROR     7    5   -0.1851334512E-08    0.1499999902E-07
     PET DIFF ERROR     8    4   -0.1851337418E-08    0.1499999902E-07
     PET DIFF ERROR     8    5   -0.1851334577E-08    0.1499999902E-07
          0                 6           2             4    6     1       0.4721262502E-02       4    6    1         0.2626170987E+00      0.2631893902E+00
          0                 7           2             4    6     1       0.3845595441E-01       4    6    1         0.2139260602E+01      0.2139287968E+01
          0                 8           2             4    6     1       0.6750337012E-03       4    6    1         0.3713785081E-01      0.4023931447E-01
          0                 9           2             4    6     1       0.1213097588E-03       4    6    1         0.6656997033E-02      0.7647605520E-02
          0                10           1             3    6     1       0.3829763999E-04       4    6    1         0.1197857693E-02      0.1728005084E-02
                                                   Max.-Head-Change                         Max.-Flux-Residual
  Residual-Control   Outer-Iter.   Inner-Iter.     Column Row Layer    Maximum-Head-Change  Column Row Layer    Maximum-Flux-Residual          L2-NORM 
          0                11           1             3    6     1       0.1676863287E-04       3    6    1         0.4450315540E-03      0.5511882720E-03
          0                12           1             3    6     1       0.7330227946E-05       3    6    1         0.1947566175E-03      0.2228546336E-03

    ------------------------------------------------
       NWT REQUIRED           12 OUTER ITERATIONS 
       AND A TOTAL OF         21 INNER ITERATIONS.
    ------------------------------------------------

 NO OUTPUT CONTROL FOR STRESS PERIOD   10   TIME STEP   29
 
 SOLVING FOR HEAD 
                                                   Max.-Head-Change                         Max.-Flux-Residual
  Residual-Control   Outer-Iter.   Inner-Iter.     Column Row Layer    Maximum-Head-Change  Column Row Layer    Maximum-Flux-Residual          L2-NORM 
          0                 1           2             6   13     1       0.7254059419E-02       5   13    1         0.3899122381E+00      0.1475041349E+01
          0                 2           2             1    2     1       0.2177631740E-02       4   13    1         0.1165766783E+00      0.4109973849E+00
          0                 3           2             4    6     1      -0.7243416668E-01       4    6    1        -0.3993496281E+01      0.3995830196E+01
          0                 4           2             4    6     1       0.4886908768E-01       4    6    1         0.2719314993E+01      0.2722930052E+01
          0                 5           2             4    6     1       0.2165502979E-01       4    6    1         0.1204303708E+01      0.1206177674E+01
          0                 6           2             4    6     1       0.1699374345E-02       4    6    1         0.9422800687E-01      0.9576720270E-01
          0                 7           2             4    6     1       0.3017059152E-03       4    6    1         0.1669950646E-01      0.1784963067E-01
          0                 8           1             4    6     1       0.5376674890E-04       4    6    1         0.2967032363E-02      0.3992301793E-02
          0                 9           1             3    6     1       0.1939241542E-04       4    6    1         0.5294415544E-03      0.1294302016E-02
          0                10           1             3    6     1       0.8711494221E-05       3    6    1         0.2349461477E-03      0.5370211411E-03

    ------------------------------------------------
       NWT REQUIRED           10 OUTER ITERATIONS 
       AND A TOTAL OF         17 INNER ITERATIONS.
    ------------------------------------------------

 NO OUTPUT CONTROL FOR STRESS PERIOD   10   TIME STEP   30



 STREAM LISTING     PERIOD     10   STEP       30

 LAYER ROW COL. STREAM  RCH.  FLOW INTO     FLOW TO   FLOW OUT OF   OVRLND.     DIRECT     STREAM       STREAM     STREAM     STREAM   STREAMBED  STREAMBED
                SEG.NO.  NO.  STRM. RCH.    AQUIFER    STRM. RCH.    RUNOFF     PRECIP       ET          HEAD       DEPTH      WIDTH   CONDCTNC.   GRADIENT

   1    1    1     1     1    1.4863E+01  1.8611E-01   1.4677E+01  0.000E+00  0.000E+00  0.000E+00  1.09406E+03  1.008E+00  1.032E+01  4.644E-02  1.336E+00
   1    2    2     1     2    1.4677E+01  2.8686E-01   1.4390E+01  0.000E+00  0.000E+00  0.000E+00  1.08906E+03  1.003E+00  1.024E+01  7.166E-02  1.334E+00
   1    3    3     1     3    1.4390E+01  2.4331E-01   1.4147E+01  0.000E+00  0.000E+00  0.000E+00  1.08342E+03  9.976E-01  1.014E+01  6.087E-02  1.333E+00
   1    3    4     1     4    1.4147E+01  2.2296E-01   1.3924E+01  0.000E+00  0.000E+00  0.000E+00  1.07840E+03  9.928E-01  1.006E+01  5.584E-02  1.331E+00
   1    4    5     2     1    1.1924E+01  2.9396E-01   1.1630E+01  0.000E+00  0.000E+00  0.000E+00  1.07270E+03  7.687E-01  1.200E+01  7.800E-02  1.256E+00
   1    5    6     2     2    1.1630E+01  2.2551E-01   1.1404E+01  0.000E+00  0.000E+00  0.000E+00  1.06727E+03  7.585E-01  1.200E+01  6.000E-02  1.253E+00
   1    6    6     2     3    1.1404E+01  2.2497E-01   1.1179E+01  0.000E+00  0.000E+00  0.000E+00  1.06254E+03  7.496E-01  1.200E+01  6.000E-02  1.250E+00
   1    7    6     2     4    1.1179E+01  2.2443E-01   1.0955E+01  0.000E+00  0.000E+00  0.000E+00  1.05782E+03  7.406E-01  1.200E+01  6.000E-02  1.247E+00
   1    8    6     2     5    1.0955E+01  2.2389E-01   1.0731E+01  0.000E+00  0.000E+00  0.000E+00  1.05309E+03  7.315E-01  1.200E+01  6.000E-02  1.244E+00
   1    3    5     3     1    2.0000E+00  2.8252E-01   1.7175E+00  0.000E+00  0.000E+00  0.000E+00  1.07555E+03  1.909E+00  9.636E+00  7.227E-02  1.955E+00
   1    3    6     3     2    1.7175E+00  2.4905E-01   1.4684E+00  0.000E+00  0.000E+00  0.000E+00  1.07264E+03  1.727E+00  8.909E+00  6.682E-02  1.864E+00
   1    3    7     3     3    1.4684E+00  1.9718E-01   1.2712E+00  0.000E+00  0.000E+00  0.000E+00  1.06987E+03  1.555E+00  8.218E+00  5.547E-02  1.777E+00
   1    4    8     3     4    1.2712E+00  2.2567E-01   1.0456E+00  0.000E+00  0.000E+00  0.000E+00  1.06682E+03  1.364E+00  7.455E+00  6.709E-02  1.682E+00
   1    5    8     3     5    1.0456E+00  1.5790E-01   8.8768E-01  0.000E+00  0.000E+00  0.000E+00  1.06362E+03  1.164E+00  6.655E+00  4.991E-02  1.582E+00
   1    6    8     3     6    8.8768E-01  5.5980E-02   8.3170E-01  0.000E+00  0.000E+00  0.000E+00  1.06158E+03  1.036E+00  6.145E+00  1.844E-02  1.518E+00
   1    5   10     4     1    1.0000E+01  9.0919E-02   9.9091E+00  0.000E+00  0.000E+00  0.000E+00  1.07836E+03  6.368E-01  1.000E+01  2.500E-02  1.212E+00
   1    5    9     4     2    9.9091E+00  1.8158E-01   9.7275E+00  0.000E+00  0.000E+00  0.000E+00  1.07154E+03  6.315E-01  1.000E+01  5.000E-02  1.211E+00
   1    6    8     4     3    9.7275E+00  1.2689E-01   9.6006E+00  0.000E+00  0.000E+00  0.000E+00  1.06381E+03  6.256E-01  1.000E+01  3.500E-02  1.209E+00
   1    6    8     5     1    1.0432E+01  2.2686E-01   1.0205E+01  0.000E+00  0.000E+00  0.000E+00  1.05868E+03  6.790E-01  1.542E+01  6.166E-02  1.226E+00
   1    7    7     5     2    1.0205E+01  2.7894E-01   9.9265E+00  0.000E+00  0.000E+00  0.000E+00  1.05417E+03  6.732E-01  1.519E+01  7.594E-02  1.224E+00
   1    8    7     5     3    9.9265E+00  1.9221E-01   9.7343E+00  0.000E+00  0.000E+00  0.000E+00  1.04992E+03  6.676E-01  1.497E+01  5.241E-02  1.223E+00
   1    8    6     5     4    9.7343E+00  1.3577E-01   9.5985E+00  0.000E+00  0.000E+00  0.000E+00  1.04691E+03  6.637E-01  1.482E+01  3.706E-02  1.221E+00
   1    9    6     6     1    1.5330E+01  2.3438E-01   1.5095E+01  0.000E+00  0.000E+00  0.000E+00  1.04363E+03  9.063E-01  1.200E+01  6.000E-02  1.302E+00
   1   10    7     6     2    1.5095E+01  2.3388E-01   1.4861E+01  0.000E+00  0.000E+00  0.000E+00  1.03908E+03  8.979E-01  1.200E+01  6.000E-02  1.299E+00
   1   11    7     6     3    1.4861E+01  2.3337E-01   1.4628E+01  0.000E+00  0.000E+00  0.000E+00  1.03453E+03  8.895E-01  1.200E+01  6.000E-02  1.297E+00
   1   12    7     6     4    1.4628E+01  2.3286E-01   1.4395E+01  0.000E+00  0.000E+00  0.000E+00  1.02997E+03  8.810E-01  1.200E+01  6.000E-02  1.294E+00
   1   13    7     6     5    1.4395E+01 -6.3782E-02   1.4459E+01  0.000E+00  0.000E+00  0.000E+00  1.02679E+03  8.780E-01  1.200E+01  2.400E-01 -8.859E-02
   1   14    9     7     1    1.5000E+02  1.1558E+00   1.4884E+02  0.000E+00  0.000E+00  0.000E+00  1.03987E+03  2.288E+00  5.530E+01  5.593E-01  6.888E-01
   1   13    8     7     2    1.4884E+02  1.6753E+00   1.4717E+02  0.000E+00  0.000E+00  0.000E+00  1.03478E+03  2.281E+00  5.526E+01  6.149E-01  9.082E-01
   1   13    7     7     3    1.4717E+02  1.4739E+00   1.4570E+02  0.000E+00  0.000E+00  0.000E+00  1.02969E+03  2.272E+00  5.523E+01  5.585E-01  8.796E-01
   1   13    6     8     1    1.6015E+02  8.9846E-01   1.5926E+02  0.000E+00  0.000E+00  0.000E+00  1.02476E+03  2.884E+00  4.182E+01  4.261E-01  7.028E-01
   1   13    5     8     2    1.5926E+02  1.4413E-01   1.5911E+02  0.000E+00  0.000E+00  0.000E+00  1.01851E+03  2.880E+00  4.176E+01  4.256E-01  1.129E-01
   1   13    4     8     3    1.5911E+02 -2.8158E+00   1.6193E+02  0.000E+00  0.000E+00  0.000E+00  1.01226E+03  2.889E+00  4.190E+01  4.269E+00 -2.199E-01
   1   13    3     8     4    1.6193E+02 -3.8968E+00   1.6582E+02  0.000E+00  0.000E+00  0.000E+00  1.00604E+03  2.912E+00  4.222E+01  4.303E+00 -3.019E-01
   1   13    2     8     5    1.6582E+02 -2.4808E+00   1.6830E+02  0.000E+00  0.000E+00  0.000E+00  9.99808E+02  2.933E+00  4.253E+01  4.334E+00 -1.908E-01
   1   13    1     8     6    1.6830E+02 -1.6213E+00   1.6993E+02  0.000E+00  0.000E+00  0.000E+00  9.94821E+02  2.946E+00  4.272E+01  2.612E+00 -2.069E-01
   1    6    8     9     1    5.0000E+00  0.0000E+00   5.0000E+00  0.000E+00  0.000E+00  0.000E+00  1.07886E+03  3.555E-01  4.000E+00  0.000E+00  1.119E+00





UNSATURATED ZONE PACKAGE VOLUMETRIC BUDGET FOR  TIME STEP    30 STRESS PERIOD   10
  ------------------------------------------------------------------------------



     CUMULATIVE VOLUMES      L**3       RATES FOR THIS TIME STEP      L**3/T
     ------------------                 ------------------------

           IN:                                      IN:
           ---                                      ---
        INFILTRATION =    26615917.4924          INFILTRATION =           5.0001

          OUT:                                     OUT:
          ----                                     ----
              UZF ET =   553469057.9105                UZF ET =           2.2500
        UZF RECHARGE =   597426553.0419          UZF RECHARGE =          22.5197

            IN - OUT = -1124279693.4601              IN - OUT =         -19.7696

          STORAGE:                                 STORAGE:
          --------                                 --------
      STORAGE CHANGE = -1124254269.1692        STORAGE CHANGE =         -19.7696

 PERCENT DISCREPANCY IS DIFFERENCE BETWEEN IN-OUT MINUS CHANGE IN STORAGE
 DIVIDED BY THE AVERAGE OF IN AND OUT TIMES 100

 PERCENT DISCREPANCY =          -0.00     PERCENT DISCREPANCY =           0.00






1
  VOLUMETRIC BUDGET FOR ENTIRE MODEL AT END OF TIME STEP   30, STRESS PERIOD  10
  ------------------------------------------------------------------------------

     CUMULATIVE VOLUMES      L**3       RATES FOR THIS TIME STEP      L**3/T
     ------------------                 ------------------------

           IN:                                      IN:
           ---                                      ---
             STORAGE     =    31586540.0000               STORAGE     =           0.2153
       CONSTANT HEAD     =           0.0000         CONSTANT HEAD     =           0.0000
               WELLS     =           0.0000                 WELLS     =           0.0000
     HEAD DEP BOUNDS     =     6570042.5000       HEAD DEP BOUNDS     =           0.2735
      STREAM LEAKAGE     =   280988704.0000        STREAM LEAKAGE     =          10.8155
        UZF RECHARGE     =   597426688.0000          UZF RECHARGE     =          22.5197
               GW ET     =           0.0000                 GW ET     =           0.0000
     SURFACE LEAKAGE     =           0.0000       SURFACE LEAKAGE     =           0.0000
    SUPPLEMENTARY WELLS  =           0.0000      SUPPLEMENTARY WELLS  =           0.0000

                TOTAL IN =   916571968.0000                  TOTAL IN =          33.8240

          OUT:                                     OUT:
          ----                                     ----
             STORAGE     =   594255744.0000               STORAGE     =          20.0361
       CONSTANT HEAD     =           0.0000         CONSTANT HEAD     =           0.0000
               WELLS     =           0.0000                 WELLS     =           0.0000
     HEAD DEP BOUNDS     =     6830509.5000       HEAD DEP BOUNDS     =           0.2828
      STREAM LEAKAGE     =   232123840.0000        STREAM LEAKAGE     =          10.8785
        UZF RECHARGE     =           0.0000          UZF RECHARGE     =           0.0000
               GW ET     =    83227000.0000                 GW ET     =           2.6250
     SURFACE LEAKAGE     =           0.0000       SURFACE LEAKAGE     =           0.0000
    SUPPLEMENTARY WELLS  =       36404.7930      SUPPLEMENTARY WELLS  =           0.0000

               TOTAL OUT =   916473536.0000                 TOTAL OUT =          33.8224

                IN - OUT =       98432.0000                  IN - OUT =       1.5984E-03

     PERCENT DISCREPANCY =           0.01         PERCENT DISCREPANCY =           0.00






         TIME SUMMARY AT END OF TIME STEP   30 IN STRESS PERIOD   10
                    SECONDS     MINUTES      HOURS       DAYS        YEARS
                    -----------------------------------------------------------
   TIME STEP LENGTH  87600.      1460.0      24.333      1.0139     2.77588E-03
 STRESS PERIOD TIME 2.62800E+06  43800.      730.00      30.417     8.32763E-02
         TOTAL TIME 2.37384E+07 3.95640E+05  6594.0      274.75     0.75222    
1
1
                            STRESS PERIOD NO.   11, LENGTH =   2628000.    
                            -----------------------------------------------

                              NUMBER OF TIME STEPS =    30

                               MULTIPLIER FOR DELT =     1.000

                            INITIAL TIME STEP SIZE =   87600.00    

 WELL NO.  LAYER   ROW   COL   STRESS RATE         
 --------------------------------------------------
      1      1      6      4       0.000    
      2      1      6      7       0.000    
      3      1      7      4       0.000    
      4      1      7      5       0.000    
      5      1      8      4       0.000    
      6      1      8      5       0.000    
      7      1      9      4       0.000    
      8      1      9      5       0.000    
      9      1     10      4       0.000    
     10      1     10      5       0.000    

     10 WELLS

 REUSING NON-PARAMETER GHB CELLS FROM LAST STRESS PERIOD

      2 GHB CELLS

 REUSING STREAM SEGMENT DATA FROM LAST STRESS PERIOD



            AREAL INFILTRATION RATE
 READING ON UNIT   19 WITH FORMAT: (10F4.0)            

            1           2           3           4           5           6           7           8           9          10
 ........................................................................................................................
   1    0.000       0.000       0.000       0.000       0.000       0.000       0.000       0.000       0.000       0.000    
   2    0.000       0.000       0.000       0.000       0.000       0.000       0.000       0.000       0.000       0.000    
   3    0.000       0.000       0.000       0.000       0.000       0.000       0.000       0.000       0.000       0.000    
   4    0.000       0.000       0.000       0.000       0.000       0.000       0.000       0.000       0.000       0.000    
   5    0.000       0.000       0.000       0.000       0.000       0.000       0.000       0.000       0.000       0.000    
   6    0.000       0.000       0.000       0.000       0.000       0.000       0.000       0.000       0.000       0.000    
   7    0.000       0.000       0.000       0.000       0.000       0.000       0.000       0.000       0.000       0.000    
   8    0.000       0.000       0.000       0.000       0.000       0.000       0.000       0.000       0.000       0.000    
   9    0.000       0.000       0.000       0.000       0.000       0.000       0.000       0.000       0.000       0.000    
  10    0.000       0.000       0.000       0.000       0.000       0.000       0.000       0.000       0.000       0.000    
  11    0.000       0.000       0.000       0.000       0.000       0.000       0.000       0.000       0.000       0.000    
  12    0.000       0.000       0.000       0.000       0.000       0.000       0.000       0.000       0.000       0.000    
  13    0.000       0.000       0.000       0.000       0.000       0.000       0.000       0.000       0.000       0.000    
  14    0.000       0.000       0.000       0.000       0.000       0.000       0.000       0.000       0.000       0.000    
  15    0.000       0.000       0.000       0.000       0.000       0.000       0.000       0.000       0.000       0.000    

                  ET RATE =  1.000000E-09

 USING ET EXTINCTION DEPTH FROM PREVIOUS STRESS PERIOD. CURRENT PERIOD IS:      11

 USING EXTINCTION WATER CONTENT FROM PREVIOUS STRESS PERIOD. CURRENT PERIOD IS:      11

 PROCESSING AGO STRESS PERIOD DATA

 READING AGO STRESS PERIOD DATA

 READING IRRIGATION STREAM

 READING IRRIGATION WELL

 READING SUPPLEMENTAL WEL

 END PROCESSING AGO STRESS PERIOD DATA OPTIONS
 
 SOLVING FOR HEAD 
                                                   Max.-Head-Change                         Max.-Flux-Residual
  Residual-Control   Outer-Iter.   Inner-Iter.     Column Row Layer    Maximum-Head-Change  Column Row Layer    Maximum-Flux-Residual          L2-NORM 
          0                 1           2             5   13     1       0.1323340027E-01       5   13    1         0.7095563935E+00      0.1778499830E+01
          0                 2           2            10   10     1       0.2172765700E-02       5   13    1        -0.6051985668E-01      0.3702785865E+00
          0                 3           2            10   10     1       0.9765457930E-03      10   10    1         0.2536131671E-01      0.1353162894E+00
          0                 4           2            10   10     1       0.4389061136E-03      10   10    1         0.1139859695E-01      0.5878956640E-01
          0                 5           2            10   10     1       0.1972649592E-03      10   10    1         0.5123070019E-02      0.2621727711E-01
          0                 6           1            10   10     1       0.8865996641E-04      10   10    1         0.2302546886E-02      0.1173514943E-01
          0                 7           1            10   10     1       0.3984781148E-04      10   10    1         0.1034870407E-02      0.5255897283E-02
          0                 8           1            10   10     1       0.1790938509E-04      10   10    1         0.4651175749E-03      0.2354306121E-02
          0                 9           1            10   10     1       0.8049264181E-05      10   10    1         0.2090445409E-03      0.1054645152E-02

    ------------------------------------------------
       NWT REQUIRED            9 OUTER ITERATIONS 
       AND A TOTAL OF         14 INNER ITERATIONS.
    ------------------------------------------------

 NO OUTPUT CONTROL FOR STRESS PERIOD   11   TIME STEP    1
 
 SOLVING FOR HEAD 
                                                   Max.-Head-Change                         Max.-Flux-Residual
  Residual-Control   Outer-Iter.   Inner-Iter.     Column Row Layer    Maximum-Head-Change  Column Row Layer    Maximum-Flux-Residual          L2-NORM 
          0                 1           2             5   13     1       0.1285277442E-01       5   13    1         0.6890431495E+00      0.1750375261E+01
          0                 2           2            10   10     1       0.2171949997E-02       5   13    1        -0.5850662306E-01      0.3698731778E+00
          0                 3           2            10   10     1       0.9761775868E-03      10   10    1         0.2535178801E-01      0.1351454334E+00
          0                 4           2            10   10     1       0.4387399090E-03      10   10    1         0.1139429573E-01      0.5871175589E-01
          0                 5           2            10   10     1       0.1971899371E-03      10   10    1         0.5121128498E-02      0.2618268607E-01
          0                 6           1            10   10     1       0.8862610312E-04      10   10    1         0.2301670519E-02      0.1171980894E-01
          0                 7           1            10   10     1       0.3983252669E-04      10   10    1         0.1034474840E-02      0.5249092672E-02
          0                 8           1            10   10     1       0.1790248628E-04      10   10    1         0.4649390299E-03      0.2351285709E-02
          0                 9           1            10   10     1       0.8046150298E-05      10   10    1         0.2089639540E-03      0.1053303472E-02

    ------------------------------------------------
       NWT REQUIRED            9 OUTER ITERATIONS 
       AND A TOTAL OF         14 INNER ITERATIONS.
    ------------------------------------------------

 NO OUTPUT CONTROL FOR STRESS PERIOD   11   TIME STEP    2
 
 SOLVING FOR HEAD 
                                                   Max.-Head-Change                         Max.-Flux-Residual
  Residual-Control   Outer-Iter.   Inner-Iter.     Column Row Layer    Maximum-Head-Change  Column Row Layer    Maximum-Flux-Residual          L2-NORM 
          0                 1           2             6   13     1       0.1256639628E-01       5   13    1         0.6692807535E+00      0.1724125541E+01
          0                 2           2            10   10     1       0.2171130328E-02       2   13    1         0.5675771889E-01      0.3694953577E+00
          0                 3           2            10   10     1       0.9758075520E-03      10   10    1         0.2534221281E-01      0.1349750663E+00
          0                 4           2            10   10     1       0.4385728621E-03      10   10    1         0.1138997308E-01      0.5863440421E-01
          0                 5           2            10   10     1       0.1971145271E-03      10   10    1         0.5119177099E-02      0.2614831553E-01
          0                 6           1            10   10     1       0.8859206176E-04      10   10    1         0.2300789609E-02      0.1170456615E-01
          0                 7           1            10   10     1       0.3981716012E-04      10   10    1         0.1034077183E-02      0.5242327498E-02
          0                 8           1            10   10     1       0.1789554970E-04      10   10    1         0.4647595240E-03      0.2348281865E-02
          0                 9           1            10   10     1       0.8043019408E-05      10   10    1         0.2088829252E-03      0.1051968769E-02

    ------------------------------------------------
       NWT REQUIRED            9 OUTER ITERATIONS 
       AND A TOTAL OF         14 INNER ITERATIONS.
    ------------------------------------------------

 NO OUTPUT CONTROL FOR STRESS PERIOD   11   TIME STEP    3
 
 SOLVING FOR HEAD 
                                                   Max.-Head-Change                         Max.-Flux-Residual
  Residual-Control   Outer-Iter.   Inner-Iter.     Column Row Layer    Maximum-Head-Change  Column Row Layer    Maximum-Flux-Residual          L2-NORM 
          0                 1           2             6   13     1       0.1228723903E-01       6   13    1         0.6533506262E+00      0.1699470965E+01
          0                 2           2            10   10     1       0.2170306924E-02       2   13    1         0.5785070720E-01      0.3691399921E+00
          0                 3           2            10   10     1       0.9754358877E-03      10   10    1         0.2533259424E-01      0.1348119900E+00
          0                 4           2            10   10     1       0.4384051046E-03      10   10    1         0.1138563151E-01      0.5855982953E-01
          0                 5           2            10   10     1       0.1970388085E-03      10   10    1         0.5117217463E-02      0.2611502879E-01
          0                 6           1            10   10     1       0.8855788584E-04      10   10    1         0.2299905106E-02      0.1168974658E-01
          0                 7           1            10   10     1       0.3980173477E-04      10   10    1         0.1033677958E-02      0.5235735573E-02
          0                 8           1            10   10     1       0.1788858761E-04      10   10    1         0.4645793354E-03      0.2345349667E-02
          0                 9           1            10   10     1       0.8039877263E-05      10   10    1         0.2088016010E-03      0.1050664330E-02

    ------------------------------------------------
       NWT REQUIRED            9 OUTER ITERATIONS 
       AND A TOTAL OF         14 INNER ITERATIONS.
    ------------------------------------------------

 NO OUTPUT CONTROL FOR STRESS PERIOD   11   TIME STEP    4
 
 SOLVING FOR HEAD 
                                                   Max.-Head-Change                         Max.-Flux-Residual
  Residual-Control   Outer-Iter.   Inner-Iter.     Column Row Layer    Maximum-Head-Change  Column Row Layer    Maximum-Flux-Residual          L2-NORM 
          0                 1           2             6   13     1       0.1201514957E-01       6   13    1         0.6388615924E+00      0.1676542808E+01
          0                 2           2            10   10     1       0.2169479582E-02       2   13    1         0.5887117640E-01      0.3688068216E+00
          0                 3           2            10   10     1       0.9750624084E-03      10   10    1         0.2532292949E-01      0.1346471659E+00
          0                 4           2            10   10     1       0.4382365115E-03      10   10    1         0.1138126865E-01      0.5848482080E-01
          0                 5           2            10   10     1       0.1969627045E-03      10   10    1         0.5115248021E-02      0.2608167734E-01
          0                 6           1            10   10     1       0.8852353283E-04      10   10    1         0.2299016099E-02      0.1167493820E-01
          0                 7           1            10   10     1       0.3978622838E-04      10   10    1         0.1033276669E-02      0.5229157761E-02
          0                 8           1            10   10     1       0.1788158875E-04      10   10    1         0.4643982013E-03      0.2342426700E-02
          0                 9           1            10   10     1       0.8036717861E-05      10   10    1         0.2087198369E-03      0.1049367372E-02

    ------------------------------------------------
       NWT REQUIRED            9 OUTER ITERATIONS 
       AND A TOTAL OF         14 INNER ITERATIONS.
    ------------------------------------------------

 OUTPUT CONTROL FOR STRESS PERIOD   11   TIME STEP    5
    PRINT BUDGET
    SAVE BUDGET
 UBUDSV SAVING "         STORAGE" ON UNIT102 AT TIME STEP     5, STRESS PERIOD   11
 UBUDSV SAVING "   CONSTANT HEAD" ON UNIT102 AT TIME STEP     5, STRESS PERIOD   11
 UBUDSV SAVING "FLOW RIGHT FACE " ON UNIT102 AT TIME STEP     5, STRESS PERIOD   11
 UBUDSV SAVING "FLOW FRONT FACE " ON UNIT102 AT TIME STEP     5, STRESS PERIOD   11

  HEAD DEP BOUNDS   PERIOD   11   STEP     5
 BOUNDARY      1   LAYER   1   ROW    13   COL     1   RATE   -0.284132    
 BOUNDARY      2   LAYER   1   ROW    14   COL     9   RATE    0.273488    



 STREAM LISTING     PERIOD     11   STEP        5

 LAYER ROW COL. STREAM  RCH.  FLOW INTO     FLOW TO   FLOW OUT OF   OVRLND.     DIRECT     STREAM       STREAM     STREAM     STREAM   STREAMBED  STREAMBED
                SEG.NO.  NO.  STRM. RCH.    AQUIFER    STRM. RCH.    RUNOFF     PRECIP       ET          HEAD       DEPTH      WIDTH   CONDCTNC.   GRADIENT

   1    1    1     1     1    7.0000E+00  1.1914E-01   6.8809E+00  0.000E+00  0.000E+00  0.000E+00  1.09385E+03  7.984E-01  6.970E+00  3.137E-02  1.266E+00
   1    2    2     1     2    6.8809E+00  1.8311E-01   6.6977E+00  0.000E+00  0.000E+00  0.000E+00  1.08885E+03  7.942E-01  6.894E+00  4.826E-02  1.265E+00
   1    3    3     1     3    6.6977E+00  1.5480E-01   6.5429E+00  0.000E+00  0.000E+00  0.000E+00  1.08321E+03  7.894E-01  6.809E+00  4.085E-02  1.263E+00
   1    3    4     1     4    6.5429E+00  1.4143E-01   6.4015E+00  0.000E+00  0.000E+00  0.000E+00  1.07819E+03  7.852E-01  6.732E+00  3.737E-02  1.262E+00
   1    4    5     2     1    4.4015E+00  2.6661E-01   4.1349E+00  0.000E+00  0.000E+00  0.000E+00  1.07235E+03  4.181E-01  1.200E+01  7.800E-02  1.139E+00
   1    5    6     2     2    4.1349E+00  2.0425E-01   3.9306E+00  0.000E+00  0.000E+00  0.000E+00  1.06691E+03  4.041E-01  1.200E+01  6.000E-02  1.135E+00
   1    6    6     2     3    3.9306E+00  2.0350E-01   3.7271E+00  0.000E+00  0.000E+00  0.000E+00  1.06218E+03  3.917E-01  1.200E+01  6.000E-02  1.131E+00
   1    7    6     2     4    3.7271E+00  2.0275E-01   3.5244E+00  0.000E+00  0.000E+00  0.000E+00  1.05745E+03  3.791E-01  1.200E+01  6.000E-02  1.126E+00
   1    8    6     2     5    3.5244E+00  2.0198E-01   3.3224E+00  0.000E+00  0.000E+00  0.000E+00  1.05272E+03  3.663E-01  1.200E+01  6.000E-02  1.122E+00
   1    3    5     3     1    2.0000E+00  2.8252E-01   1.7175E+00  0.000E+00  0.000E+00  0.000E+00  1.07555E+03  1.909E+00  9.636E+00  7.227E-02  1.955E+00
   1    3    6     3     2    1.7175E+00  2.4905E-01   1.4684E+00  0.000E+00  0.000E+00  0.000E+00  1.07264E+03  1.727E+00  8.909E+00  6.682E-02  1.864E+00
   1    3    7     3     3    1.4684E+00  1.9718E-01   1.2712E+00  0.000E+00  0.000E+00  0.000E+00  1.06987E+03  1.555E+00  8.218E+00  5.547E-02  1.777E+00
   1    4    8     3     4    1.2712E+00  2.2567E-01   1.0456E+00  0.000E+00  0.000E+00  0.000E+00  1.06682E+03  1.364E+00  7.455E+00  6.709E-02  1.682E+00
   1    5    8     3     5    1.0456E+00  1.5790E-01   8.8768E-01  0.000E+00  0.000E+00  0.000E+00  1.06362E+03  1.164E+00  6.655E+00  4.991E-02  1.582E+00
   1    6    8     3     6    8.8768E-01  5.5980E-02   8.3170E-01  0.000E+00  0.000E+00  0.000E+00  1.06158E+03  1.036E+00  6.145E+00  1.844E-02  1.518E+00
   1    5   10     4     1    1.0000E+01  9.0919E-02   9.9091E+00  0.000E+00  0.000E+00  0.000E+00  1.07836E+03  6.368E-01  1.000E+01  2.500E-02  1.212E+00
   1    5    9     4     2    9.9091E+00  1.8158E-01   9.7275E+00  0.000E+00  0.000E+00  0.000E+00  1.07154E+03  6.315E-01  1.000E+01  5.000E-02  1.211E+00
   1    6    8     4     3    9.7275E+00  1.2689E-01   9.6006E+00  0.000E+00  0.000E+00  0.000E+00  1.06381E+03  6.256E-01  1.000E+01  3.500E-02  1.209E+00
   1    6    8     5     1    1.0432E+01  2.2686E-01   1.0205E+01  0.000E+00  0.000E+00  0.000E+00  1.05868E+03  6.790E-01  1.542E+01  6.166E-02  1.226E+00
   1    7    7     5     2    1.0205E+01  2.7894E-01   9.9265E+00  0.000E+00  0.000E+00  0.000E+00  1.05417E+03  6.732E-01  1.519E+01  7.594E-02  1.224E+00
   1    8    7     5     3    9.9265E+00  1.9221E-01   9.7343E+00  0.000E+00  0.000E+00  0.000E+00  1.04992E+03  6.676E-01  1.497E+01  5.241E-02  1.223E+00
   1    8    6     5     4    9.7343E+00  1.3577E-01   9.5985E+00  0.000E+00  0.000E+00  0.000E+00  1.04691E+03  6.637E-01  1.482E+01  3.706E-02  1.221E+00
   1    9    6     6     1    1.2921E+01  2.2904E-01   1.2692E+01  0.000E+00  0.000E+00  0.000E+00  1.04354E+03  8.174E-01  1.200E+01  6.000E-02  1.272E+00
   1   10    7     6     2    1.2692E+01  2.2852E-01   1.2463E+01  0.000E+00  0.000E+00  0.000E+00  1.03899E+03  8.086E-01  1.200E+01  6.000E-02  1.270E+00
   1   11    7     6     3    1.2463E+01  2.2799E-01   1.2235E+01  0.000E+00  0.000E+00  0.000E+00  1.03444E+03  7.998E-01  1.200E+01  6.000E-02  1.267E+00
   1   12    7     6     4    1.2235E+01  2.2745E-01   1.2008E+01  0.000E+00  0.000E+00  0.000E+00  1.02988E+03  7.909E-01  1.200E+01  6.000E-02  1.264E+00
   1   13    7     6     5    1.2008E+01 -9.5898E-02   1.2104E+01  0.000E+00  0.000E+00  0.000E+00  1.02670E+03  7.883E-01  1.200E+01  2.400E-01 -1.332E-01
   1   14    9     7     1    1.5000E+02  1.1555E+00   1.4884E+02  0.000E+00  0.000E+00  0.000E+00  1.03987E+03  2.288E+00  5.530E+01  5.593E-01  6.886E-01
   1   13    8     7     2    1.4884E+02  1.6735E+00   1.4717E+02  0.000E+00  0.000E+00  0.000E+00  1.03478E+03  2.281E+00  5.526E+01  6.149E-01  9.073E-01
   1   13    7     7     3    1.4717E+02  1.4493E+00   1.4572E+02  0.000E+00  0.000E+00  0.000E+00  1.02969E+03  2.272E+00  5.523E+01  5.585E-01  8.649E-01
   1   13    6     8     1    1.5783E+02  8.6208E-01   1.5696E+02  0.000E+00  0.000E+00  0.000E+00  1.02474E+03  2.868E+00  4.159E+01  4.238E-01  6.781E-01
   1   13    5     8     2    1.5696E+02  1.1231E-01   1.5685E+02  0.000E+00  0.000E+00  0.000E+00  1.01849E+03  2.865E+00  4.154E+01  4.233E-01  8.844E-02
   1   13    4     8     3    1.5685E+02 -2.9411E+00   1.5979E+02  0.000E+00  0.000E+00  0.000E+00  1.01225E+03  2.874E+00  4.168E+01  4.247E+00 -2.308E-01
   1   13    3     8     4    1.5979E+02 -4.0100E+00   1.6380E+02  0.000E+00  0.000E+00  0.000E+00  1.00602E+03  2.898E+00  4.202E+01  4.282E+00 -3.122E-01
   1   13    2     8     5    1.6380E+02 -2.5999E+00   1.6640E+02  0.000E+00  0.000E+00  0.000E+00  9.99795E+02  2.920E+00  4.234E+01  4.315E+00 -2.009E-01
   1   13    1     8     6    1.6640E+02 -1.7373E+00   1.6814E+02  0.000E+00  0.000E+00  0.000E+00  9.94809E+02  2.934E+00  4.255E+01  2.601E+00 -2.226E-01
   1    6    8     9     1    1.4287E-07  0.0000E+00   1.4287E-07  0.000E+00  0.000E+00  0.000E+00  1.07850E+03  9.919E-06  4.000E+00  0.000E+00  1.000E+00



 UBDSV3 SAVING "     NETRECHARGE" ON UNIT 100 AT TIME STEP     5, STRESS PERIOD  11
 UBDSV3 SAVING "    NETDISCHARGE" ON UNIT 101 AT TIME STEP     5, STRESS PERIOD  11
 UBDSV3 SAVING "           GW ET" ON UNIT  61 AT TIME STEP     5, STRESS PERIOD  11
 UBDSV3 SAVING "    UZF RECHARGE" ON UNIT  61 AT TIME STEP     5, STRESS PERIOD  11
 UBDSV3 SAVING " SURFACE LEAKAGE" ON UNIT  61 AT TIME STEP     5, STRESS PERIOD  11
 UBDSV3 SAVING "       HORT+DUNN" ON UNIT  61 AT TIME STEP     5, STRESS PERIOD  11
 UBDSV3 SAVING "  STORAGE CHANGE" ON UNIT  61 AT TIME STEP     5, STRESS PERIOD  11


UNSATURATED ZONE PACKAGE VOLUMETRIC BUDGET FOR  TIME STEP     5 STRESS PERIOD   11
  ------------------------------------------------------------------------------



     CUMULATIVE VOLUMES      L**3       RATES FOR THIS TIME STEP      L**3/T
     ------------------                 ------------------------

           IN:                                      IN:
           ---                                      ---
        INFILTRATION =    26615969.1692          INFILTRATION =           0.0000

          OUT:                                     OUT:
          ----                                     ----
              UZF ET =   553534759.7584                UZF ET =           0.1500
        UZF RECHARGE =   607222782.7222          UZF RECHARGE =          22.3626

            IN - OUT = -1134141573.3114              IN - OUT =         -22.5126

          STORAGE:                                 STORAGE:
          --------                                 --------
      STORAGE CHANGE = -1134116104.0161        STORAGE CHANGE =         -22.5126

 PERCENT DISCREPANCY IS DIFFERENCE BETWEEN IN-OUT MINUS CHANGE IN STORAGE
 DIVIDED BY THE AVERAGE OF IN AND OUT TIMES 100

 PERCENT DISCREPANCY =          -0.00     PERCENT DISCREPANCY =           0.00






1
  VOLUMETRIC BUDGET FOR ENTIRE MODEL AT END OF TIME STEP    5, STRESS PERIOD  11
  ------------------------------------------------------------------------------

     CUMULATIVE VOLUMES      L**3       RATES FOR THIS TIME STEP      L**3/T
     ------------------                 ------------------------

           IN:                                      IN:
           ---                                      ---
             STORAGE     =    31596876.0000               STORAGE     =       2.1775E-02
       CONSTANT HEAD     =           0.0000         CONSTANT HEAD     =           0.0000
               WELLS     =           0.0000                 WELLS     =           0.0000
     HEAD DEP BOUNDS     =     6689833.0000       HEAD DEP BOUNDS     =           0.2735
      STREAM LEAKAGE     =   285488800.0000        STREAM LEAKAGE     =          10.2448
        UZF RECHARGE     =   607222976.0000          UZF RECHARGE     =          22.3626
               GW ET     =           0.0000                 GW ET     =           0.0000
     SURFACE LEAKAGE     =           0.0000       SURFACE LEAKAGE     =           0.0000
    SUPPLEMENTARY WELLS  =           0.0000      SUPPLEMENTARY WELLS  =           0.0000

                TOTAL IN =   930998528.0000                  TOTAL IN =          32.9026

          OUT:                                     OUT:
          ----                                     ----
             STORAGE     =   603544448.0000               STORAGE     =          21.0560
       CONSTANT HEAD     =           0.0000         CONSTANT HEAD     =           0.0000
               WELLS     =           0.0000                 WELLS     =           0.0000
     HEAD DEP BOUNDS     =     6954737.5000       HEAD DEP BOUNDS     =           0.2841
      STREAM LEAKAGE     =   237059280.0000        STREAM LEAKAGE     =          11.3842
        UZF RECHARGE     =           0.0000          UZF RECHARGE     =           0.0000
               GW ET     =    83303640.0000                 GW ET     =           0.1750
     SURFACE LEAKAGE     =           0.0000       SURFACE LEAKAGE     =           0.0000
    SUPPLEMENTARY WELLS  =       36404.7930      SUPPLEMENTARY WELLS  =       1.2699E-08

               TOTAL OUT =   930898496.0000                 TOTAL OUT =          32.8993

                IN - OUT =      100032.0000                  IN - OUT =       3.3035E-03

     PERCENT DISCREPANCY =           0.01         PERCENT DISCREPANCY =           0.01






         TIME SUMMARY AT END OF TIME STEP    5 IN STRESS PERIOD   11
                    SECONDS     MINUTES      HOURS       DAYS        YEARS
                    -----------------------------------------------------------
   TIME STEP LENGTH  87600.      1460.0      24.333      1.0139     2.77588E-03
 STRESS PERIOD TIME 4.38000E+05  7300.0      121.67      5.0694     1.38794E-02
         TOTAL TIME 2.41764E+07 4.02940E+05  6715.7      279.82     0.76610    
1
 
 SOLVING FOR HEAD 
                                                   Max.-Head-Change                         Max.-Flux-Residual
  Residual-Control   Outer-Iter.   Inner-Iter.     Column Row Layer    Maximum-Head-Change  Column Row Layer    Maximum-Flux-Residual          L2-NORM 
          0                 1           2             6   13     1       0.1174991082E-01       6   13    1         0.6247361476E+00      0.1654630207E+01
          0                 2           2            10   10     1       0.2168648341E-02       2   13    1         0.5982990326E-01      0.3684387344E+00
          0                 3           2            10   10     1       0.9746871791E-03      10   10    1         0.2531321924E-01      0.1344797312E+00
          0                 4           2            10   10     1       0.4380671328E-03      10   10    1         0.1137688537E-01      0.5841032717E-01
          0                 5           2            10   10     1       0.1968862485E-03      10   10    1         0.5113269417E-02      0.2604865979E-01
          0                 6           1            10   10     1       0.8848902176E-04      10   10    1         0.2298122975E-02      0.1166028214E-01
          0                 7           1            10   10     1       0.3977065122E-04      10   10    1         0.1032873532E-02      0.5222645760E-02
          0                 8           1            10   10     1       0.1787455763E-04      10   10    1         0.4642162339E-03      0.2339531083E-02
          0                 9           1            10   10     1       0.8033544202E-05      10   10    1         0.2086377021E-03      0.1048077040E-02

    ------------------------------------------------
       NWT REQUIRED            9 OUTER ITERATIONS 
       AND A TOTAL OF         14 INNER ITERATIONS.
    ------------------------------------------------

 NO OUTPUT CONTROL FOR STRESS PERIOD   11   TIME STEP    6
 
 SOLVING FOR HEAD 
                                                   Max.-Head-Change                         Max.-Flux-Residual
  Residual-Control   Outer-Iter.   Inner-Iter.     Column Row Layer    Maximum-Head-Change  Column Row Layer    Maximum-Flux-Residual          L2-NORM 
          0                 1           2             6   13     1       0.1149128878E-01       6   13    1         0.6109759171E+00      0.1634160936E+01
          0                 2           2            10   10     1       0.2167764776E-02       2   13    1         0.6072703028E-01      0.3681104556E+00
          0                 3           2            10   10     1       0.9742884593E-03      10   10    1         0.2530289838E-01      0.1343182815E+00
          0                 4           2            10   10     1       0.4378872082E-03      10   10    1         0.1137222797E-01      0.5833740050E-01
          0                 5           2            10   10     1       0.1968050580E-03      10   10    1         0.5111167746E-02      0.2601623394E-01
          0                 6           1            10   10     1       0.8845238550E-04      10   10    1         0.2297174602E-02      0.1164587385E-01
          0                 7           1            10   10     1       0.3975411938E-04      10   10    1         0.1032445586E-02      0.5216240529E-02
          0                 8           1            10   10     1       0.1786709831E-04      10   10    1         0.4640231336E-03      0.2336682382E-02
          0                 9           1            10   10     1       0.8030178457E-05      10   10    1         0.2085505701E-03      0.1046809474E-02

    ------------------------------------------------
       NWT REQUIRED            9 OUTER ITERATIONS 
       AND A TOTAL OF         14 INNER ITERATIONS.
    ------------------------------------------------

 NO OUTPUT CONTROL FOR STRESS PERIOD   11   TIME STEP    7
 
 SOLVING FOR HEAD 
                                                   Max.-Head-Change                         Max.-Flux-Residual
  Residual-Control   Outer-Iter.   Inner-Iter.     Column Row Layer    Maximum-Head-Change  Column Row Layer    Maximum-Flux-Residual          L2-NORM 
          0                 1           2             6   13     1       0.1123908400E-01       6   13    1         0.5975467578E+00      0.1615270246E+01
          0                 2           2            10   10     1       0.2166925969E-02       2   13    1         0.6156605754E-01      0.3678580329E+00
          0                 3           2            10   10     1       0.9739098349E-03      10   10    1         0.2529309984E-01      0.1341657280E+00
          0                 4           2            10   10     1       0.4377163066E-03      10   10    1         0.1136780508E-01      0.5826629400E-01
          0                 5           2            10   10     1       0.1967279185E-03      10   10    1         0.5109171363E-02      0.2598439986E-01
          0                 6           1            10   10     1       0.8841756754E-04      10   10    1         0.2296273500E-02      0.1163168183E-01
          0                 7           1            10   10     1       0.3973840440E-04      10   10    1         0.1032038869E-02      0.5209917691E-02
          0                 8           1            10   10     1       0.1786000542E-04      10   10    1         0.4638395629E-03      0.2333865479E-02
          0                 9           1            10   10     1       0.8026977036E-05      10   10    1         0.2084677162E-03      0.1045554418E-02

    ------------------------------------------------
       NWT REQUIRED            9 OUTER ITERATIONS 
       AND A TOTAL OF         14 INNER ITERATIONS.
    ------------------------------------------------

 NO OUTPUT CONTROL FOR STRESS PERIOD   11   TIME STEP    8
 
 SOLVING FOR HEAD 
                                                   Max.-Head-Change                         Max.-Flux-Residual
  Residual-Control   Outer-Iter.   Inner-Iter.     Column Row Layer    Maximum-Head-Change  Column Row Layer    Maximum-Flux-Residual          L2-NORM 
          0                 1           2             6   13     1       0.1099329375E-01       6   13    1         0.5844537868E+00      0.1597690701E+01
          0                 2           2            10   10     1       0.2166083317E-02       2   13    1         0.6235280684E-01      0.3676199723E+00
          0                 3           2            10   10     1       0.9735294861E-03      10   10    1         0.2528325643E-01      0.1340128098E+00
          0                 4           2            10   10     1       0.4375446311E-03      10   10    1         0.1136336206E-01      0.5819508747E-01
          0                 5           2            10   10     1       0.1966504323E-03      10   10    1         0.5107165961E-02      0.2595290078E-01
          0                 6           1            10   10     1       0.8838259451E-04      10   10    1         0.2295368358E-02      0.1161781710E-01
          0                 7           1            10   10     1       0.3972261989E-04      10   10    1         0.1031630340E-02      0.5203821249E-02
          0                 8           1            10   10     1       0.1785288125E-04      10   10    1         0.4636551789E-03      0.2331199260E-02
          0                 9           1            10   10     1       0.8023762109E-05      10   10    1         0.2083845024E-03      0.1044371001E-02

    ------------------------------------------------
       NWT REQUIRED            9 OUTER ITERATIONS 
       AND A TOTAL OF         14 INNER ITERATIONS.
    ------------------------------------------------

 NO OUTPUT CONTROL FOR STRESS PERIOD   11   TIME STEP    9
 
 SOLVING FOR HEAD 
                                                   Max.-Head-Change                         Max.-Flux-Residual
  Residual-Control   Outer-Iter.   Inner-Iter.     Column Row Layer    Maximum-Head-Change  Column Row Layer    Maximum-Flux-Residual          L2-NORM 
          0                 1           2             6   13     1       0.1075374030E-01       6   13    1         0.5716937040E+00      0.1581209767E+01
          0                 2           2            10   10     1       0.2165188382E-02       2   13    1         0.6308845403E-01      0.3673920961E+00
          0                 3           2            10   10     1       0.9731256660E-03      10   10    1         0.2527280290E-01      0.1338631589E+00
          0                 4           2            10   10     1       0.4373624195E-03      10   10    1         0.1135864515E-01      0.5812601250E-01
          0                 5           2            10   10     1       0.1965682158E-03      10   10    1         0.5105037595E-02      0.2592205387E-01
          0                 6           1            10   10     1       0.8834549804E-04      10   10    1         0.2294408013E-02      0.1160407811E-01
          0                 7           1            10   10     1       0.3970588196E-04      10   10    1         0.1031197027E-02      0.5197693394E-02
          0                 8           1            10   10     1       0.1784532890E-04      10   10    1         0.4634596677E-03      0.2328449532E-02
          0                 9           1            10   10     1       0.8020354846E-05      10   10    1         0.2082962923E-03      0.1043153669E-02

    ------------------------------------------------
       NWT REQUIRED            9 OUTER ITERATIONS 
       AND A TOTAL OF         14 INNER ITERATIONS.
    ------------------------------------------------

 OUTPUT CONTROL FOR STRESS PERIOD   11   TIME STEP   10
    PRINT BUDGET
    SAVE BUDGET
 UBUDSV SAVING "         STORAGE" ON UNIT102 AT TIME STEP    10, STRESS PERIOD   11
 UBUDSV SAVING "   CONSTANT HEAD" ON UNIT102 AT TIME STEP    10, STRESS PERIOD   11
 UBUDSV SAVING "FLOW RIGHT FACE " ON UNIT102 AT TIME STEP    10, STRESS PERIOD   11
 UBUDSV SAVING "FLOW FRONT FACE " ON UNIT102 AT TIME STEP    10, STRESS PERIOD   11

  HEAD DEP BOUNDS   PERIOD   11   STEP    10
 BOUNDARY      1   LAYER   1   ROW    13   COL     1   RATE   -0.285184    
 BOUNDARY      2   LAYER   1   ROW    14   COL     9   RATE    0.273473    



 STREAM LISTING     PERIOD     11   STEP       10

 LAYER ROW COL. STREAM  RCH.  FLOW INTO     FLOW TO   FLOW OUT OF   OVRLND.     DIRECT     STREAM       STREAM     STREAM     STREAM   STREAMBED  STREAMBED
                SEG.NO.  NO.  STRM. RCH.    AQUIFER    STRM. RCH.    RUNOFF     PRECIP       ET          HEAD       DEPTH      WIDTH   CONDCTNC.   GRADIENT

   1    1    1     1     1    7.0000E+00  1.1914E-01   6.8809E+00  0.000E+00  0.000E+00  0.000E+00  1.09385E+03  7.984E-01  6.970E+00  3.137E-02  1.266E+00
   1    2    2     1     2    6.8809E+00  1.8311E-01   6.6977E+00  0.000E+00  0.000E+00  0.000E+00  1.08885E+03  7.942E-01  6.894E+00  4.826E-02  1.265E+00
   1    3    3     1     3    6.6977E+00  1.5480E-01   6.5429E+00  0.000E+00  0.000E+00  0.000E+00  1.08321E+03  7.894E-01  6.809E+00  4.085E-02  1.263E+00
   1    3    4     1     4    6.5429E+00  1.4143E-01   6.4015E+00  0.000E+00  0.000E+00  0.000E+00  1.07819E+03  7.852E-01  6.732E+00  3.737E-02  1.262E+00
   1    4    5     2     1    4.4015E+00  2.6661E-01   4.1349E+00  0.000E+00  0.000E+00  0.000E+00  1.07235E+03  4.181E-01  1.200E+01  7.800E-02  1.139E+00
   1    5    6     2     2    4.1349E+00  2.0425E-01   3.9306E+00  0.000E+00  0.000E+00  0.000E+00  1.06691E+03  4.041E-01  1.200E+01  6.000E-02  1.135E+00
   1    6    6     2     3    3.9306E+00  2.0350E-01   3.7271E+00  0.000E+00  0.000E+00  0.000E+00  1.06218E+03  3.917E-01  1.200E+01  6.000E-02  1.131E+00
   1    7    6     2     4    3.7271E+00  2.0275E-01   3.5244E+00  0.000E+00  0.000E+00  0.000E+00  1.05745E+03  3.791E-01  1.200E+01  6.000E-02  1.126E+00
   1    8    6     2     5    3.5244E+00  2.0198E-01   3.3224E+00  0.000E+00  0.000E+00  0.000E+00  1.05272E+03  3.663E-01  1.200E+01  6.000E-02  1.122E+00
   1    3    5     3     1    2.0000E+00  2.8252E-01   1.7175E+00  0.000E+00  0.000E+00  0.000E+00  1.07555E+03  1.909E+00  9.636E+00  7.227E-02  1.955E+00
   1    3    6     3     2    1.7175E+00  2.4905E-01   1.4684E+00  0.000E+00  0.000E+00  0.000E+00  1.07264E+03  1.727E+00  8.909E+00  6.682E-02  1.864E+00
   1    3    7     3     3    1.4684E+00  1.9718E-01   1.2712E+00  0.000E+00  0.000E+00  0.000E+00  1.06987E+03  1.555E+00  8.218E+00  5.547E-02  1.777E+00
   1    4    8     3     4    1.2712E+00  2.2567E-01   1.0456E+00  0.000E+00  0.000E+00  0.000E+00  1.06682E+03  1.364E+00  7.455E+00  6.709E-02  1.682E+00
   1    5    8     3     5    1.0456E+00  1.5790E-01   8.8768E-01  0.000E+00  0.000E+00  0.000E+00  1.06362E+03  1.164E+00  6.655E+00  4.991E-02  1.582E+00
   1    6    8     3     6    8.8768E-01  5.5980E-02   8.3170E-01  0.000E+00  0.000E+00  0.000E+00  1.06158E+03  1.036E+00  6.145E+00  1.844E-02  1.518E+00
   1    5   10     4     1    1.0000E+01  9.0919E-02   9.9091E+00  0.000E+00  0.000E+00  0.000E+00  1.07836E+03  6.368E-01  1.000E+01  2.500E-02  1.212E+00
   1    5    9     4     2    9.9091E+00  1.8158E-01   9.7275E+00  0.000E+00  0.000E+00  0.000E+00  1.07154E+03  6.315E-01  1.000E+01  5.000E-02  1.211E+00
   1    6    8     4     3    9.7275E+00  1.2689E-01   9.6006E+00  0.000E+00  0.000E+00  0.000E+00  1.06381E+03  6.256E-01  1.000E+01  3.500E-02  1.209E+00
   1    6    8     5     1    1.0432E+01  2.2686E-01   1.0205E+01  0.000E+00  0.000E+00  0.000E+00  1.05868E+03  6.790E-01  1.542E+01  6.166E-02  1.226E+00
   1    7    7     5     2    1.0205E+01  2.7894E-01   9.9265E+00  0.000E+00  0.000E+00  0.000E+00  1.05417E+03  6.732E-01  1.519E+01  7.594E-02  1.224E+00
   1    8    7     5     3    9.9265E+00  1.9221E-01   9.7343E+00  0.000E+00  0.000E+00  0.000E+00  1.04992E+03  6.676E-01  1.497E+01  5.241E-02  1.223E+00
   1    8    6     5     4    9.7343E+00  1.3577E-01   9.5985E+00  0.000E+00  0.000E+00  0.000E+00  1.04691E+03  6.637E-01  1.482E+01  3.706E-02  1.221E+00
   1    9    6     6     1    1.2921E+01  2.2904E-01   1.2692E+01  0.000E+00  0.000E+00  0.000E+00  1.04354E+03  8.174E-01  1.200E+01  6.000E-02  1.272E+00
   1   10    7     6     2    1.2692E+01  2.2852E-01   1.2463E+01  0.000E+00  0.000E+00  0.000E+00  1.03899E+03  8.086E-01  1.200E+01  6.000E-02  1.270E+00
   1   11    7     6     3    1.2463E+01  2.2799E-01   1.2235E+01  0.000E+00  0.000E+00  0.000E+00  1.03444E+03  7.998E-01  1.200E+01  6.000E-02  1.267E+00
   1   12    7     6     4    1.2235E+01  2.2745E-01   1.2008E+01  0.000E+00  0.000E+00  0.000E+00  1.02988E+03  7.909E-01  1.200E+01  6.000E-02  1.264E+00
   1   13    7     6     5    1.2008E+01 -1.0504E-01   1.2113E+01  0.000E+00  0.000E+00  0.000E+00  1.02670E+03  7.885E-01  1.200E+01  2.400E-01 -1.459E-01
   1   14    9     7     1    1.5000E+02  1.1553E+00   1.4884E+02  0.000E+00  0.000E+00  0.000E+00  1.03987E+03  2.288E+00  5.530E+01  5.593E-01  6.885E-01
   1   13    8     7     2    1.4884E+02  1.6711E+00   1.4717E+02  0.000E+00  0.000E+00  0.000E+00  1.03478E+03  2.281E+00  5.526E+01  6.149E-01  9.060E-01
   1   13    7     7     3    1.4717E+02  1.4279E+00   1.4575E+02  0.000E+00  0.000E+00  0.000E+00  1.02969E+03  2.272E+00  5.523E+01  5.585E-01  8.522E-01
   1   13    6     8     1    1.5786E+02  8.4002E-01   1.5702E+02  0.000E+00  0.000E+00  0.000E+00  1.02474E+03  2.868E+00  4.159E+01  4.238E-01  6.606E-01
   1   13    5     8     2    1.5702E+02  9.1222E-02   1.5693E+02  0.000E+00  0.000E+00  0.000E+00  1.01849E+03  2.865E+00  4.155E+01  4.234E-01  7.182E-02
   1   13    4     8     3    1.5693E+02 -2.9992E+00   1.5993E+02  0.000E+00  0.000E+00  0.000E+00  1.01225E+03  2.875E+00  4.169E+01  4.248E+00 -2.353E-01
   1   13    3     8     4    1.5993E+02 -4.0576E+00   1.6398E+02  0.000E+00  0.000E+00  0.000E+00  1.00602E+03  2.899E+00  4.204E+01  4.284E+00 -3.157E-01
   1   13    2     8     5    1.6398E+02 -2.6499E+00   1.6663E+02  0.000E+00  0.000E+00  0.000E+00  9.99796E+02  2.921E+00  4.236E+01  4.317E+00 -2.046E-01
   1   13    1     8     6    1.6663E+02 -1.8058E+00   1.6844E+02  0.000E+00  0.000E+00  0.000E+00  9.94811E+02  2.936E+00  4.257E+01  2.603E+00 -2.312E-01
   1    6    8     9     1    1.1415E-07  0.0000E+00   1.1415E-07  0.000E+00  0.000E+00  0.000E+00  1.07850E+03  8.744E-06  4.000E+00  0.000E+00  1.000E+00



 UBDSV3 SAVING "     NETRECHARGE" ON UNIT 100 AT TIME STEP    10, STRESS PERIOD  11
 UBDSV3 SAVING "    NETDISCHARGE" ON UNIT 101 AT TIME STEP    10, STRESS PERIOD  11
 UBDSV3 SAVING "           GW ET" ON UNIT  61 AT TIME STEP    10, STRESS PERIOD  11
 UBDSV3 SAVING "    UZF RECHARGE" ON UNIT  61 AT TIME STEP    10, STRESS PERIOD  11
 UBDSV3 SAVING " SURFACE LEAKAGE" ON UNIT  61 AT TIME STEP    10, STRESS PERIOD  11
 UBDSV3 SAVING "       HORT+DUNN" ON UNIT  61 AT TIME STEP    10, STRESS PERIOD  11
 UBDSV3 SAVING "  STORAGE CHANGE" ON UNIT  61 AT TIME STEP    10, STRESS PERIOD  11


UNSATURATED ZONE PACKAGE VOLUMETRIC BUDGET FOR  TIME STEP    10 STRESS PERIOD   11
  ------------------------------------------------------------------------------



     CUMULATIVE VOLUMES      L**3       RATES FOR THIS TIME STEP      L**3/T
     ------------------                 ------------------------

           IN:                                      IN:
           ---                                      ---
        INFILTRATION =    26615969.2101          INFILTRATION =           0.0000

          OUT:                                     OUT:
          ----                                     ----
              UZF ET =   553600459.7530                UZF ET =           0.1500
        UZF RECHARGE =   617004172.7714          UZF RECHARGE =          22.3249

            IN - OUT = -1143988663.3143              IN - OUT =         -22.4749

          STORAGE:                                 STORAGE:
          --------                                 --------
      STORAGE CHANGE = -1143963194.0690        STORAGE CHANGE =         -22.4749

 PERCENT DISCREPANCY IS DIFFERENCE BETWEEN IN-OUT MINUS CHANGE IN STORAGE
 DIVIDED BY THE AVERAGE OF IN AND OUT TIMES 100

 PERCENT DISCREPANCY =          -0.00     PERCENT DISCREPANCY =           0.00






1
  VOLUMETRIC BUDGET FOR ENTIRE MODEL AT END OF TIME STEP   10, STRESS PERIOD  11
  ------------------------------------------------------------------------------

     CUMULATIVE VOLUMES      L**3       RATES FOR THIS TIME STEP      L**3/T
     ------------------                 ------------------------

           IN:                                      IN:
           ---                                      ---
             STORAGE     =    31604966.0000               STORAGE     =       1.7924E-02
       CONSTANT HEAD     =           0.0000         CONSTANT HEAD     =           0.0000
               WELLS     =           0.0000                 WELLS     =           0.0000
     HEAD DEP BOUNDS     =     6809616.5000       HEAD DEP BOUNDS     =           0.2735
      STREAM LEAKAGE     =   289958080.0000        STREAM LEAKAGE     =          10.1776
        UZF RECHARGE     =   617004352.0000          UZF RECHARGE     =          22.3249
               GW ET     =           0.0000                 GW ET     =           0.0000
     SURFACE LEAKAGE     =           0.0000       SURFACE LEAKAGE     =           0.0000
    SUPPLEMENTARY WELLS  =           0.0000      SUPPLEMENTARY WELLS  =           0.0000

                TOTAL IN =   945377024.0000                  TOTAL IN =          32.7939

          OUT:                                     OUT:
          ----                                     ----
             STORAGE     =   612670336.0000               STORAGE     =          20.7128
       CONSTANT HEAD     =           0.0000         CONSTANT HEAD     =           0.0000
               WELLS     =           0.0000                 WELLS     =           0.0000
     HEAD DEP BOUNDS     =     7079472.5000       HEAD DEP BOUNDS     =           0.2852
      STREAM LEAKAGE     =   242109072.0000        STREAM LEAKAGE     =          11.6175
        UZF RECHARGE     =           0.0000          UZF RECHARGE     =           0.0000
               GW ET     =    83380280.0000                 GW ET     =           0.1750
     SURFACE LEAKAGE     =           0.0000       SURFACE LEAKAGE     =           0.0000
    SUPPLEMENTARY WELLS  =       36404.7930      SUPPLEMENTARY WELLS  =       9.7192E-09

               TOTAL OUT =   945275584.0000                 TOTAL OUT =          32.7906

                IN - OUT =      101440.0000                  IN - OUT =       3.2921E-03

     PERCENT DISCREPANCY =           0.01         PERCENT DISCREPANCY =           0.01






         TIME SUMMARY AT END OF TIME STEP   10 IN STRESS PERIOD   11
                    SECONDS     MINUTES      HOURS       DAYS        YEARS
                    -----------------------------------------------------------
   TIME STEP LENGTH  87600.      1460.0      24.333      1.0139     2.77588E-03
 STRESS PERIOD TIME 8.76000E+05  14600.      243.33      10.139     2.77588E-02
         TOTAL TIME 2.46144E+07 4.10240E+05  6837.3      284.89     0.77998    
1
 
 SOLVING FOR HEAD 
                                                   Max.-Head-Change                         Max.-Flux-Residual
  Residual-Control   Outer-Iter.   Inner-Iter.     Column Row Layer    Maximum-Head-Change  Column Row Layer    Maximum-Flux-Residual          L2-NORM 
          0                 1           2             6   13     1       0.1052003794E-01       6   13    1         0.5592594102E+00      0.1565584171E+01
          0                 2           2            10   10     1       0.2164338087E-02       2   13    1         0.6376818582E-01      0.3673400553E+00
          0                 3           2            10   10     1       0.9727418419E-03      10   10    1         0.2526287009E-01      0.1337192293E+00
          0                 4           2            10   10     1       0.4371891640E-03      10   10    1         0.1135416148E-01      0.5805779001E-01
          0                 5           2            10   10     1       0.1964900116E-03      10   10    1         0.5103013717E-02      0.2589151849E-01
          0                 6           1            10   10     1       0.8831019912E-04      10   10    1         0.2293494478E-02      0.1159046657E-01
          0                 7           1            10   10     1       0.3968994914E-04      10   10    1         0.1030784681E-02      0.5191627997E-02
          0                 8           1            10   10     1       0.1783813796E-04      10   10    1         0.4632735547E-03      0.2325745757E-02
          0                 9           1            10   10     1       0.8017109155E-05      10   10    1         0.2082122897E-03      0.1041948053E-02

    ------------------------------------------------
       NWT REQUIRED            9 OUTER ITERATIONS 
       AND A TOTAL OF         14 INNER ITERATIONS.
    ------------------------------------------------

 NO OUTPUT CONTROL FOR STRESS PERIOD   11   TIME STEP   11
 
 SOLVING FOR HEAD 
                                                   Max.-Head-Change                         Max.-Flux-Residual
  Residual-Control   Outer-Iter.   Inner-Iter.     Column Row Layer    Maximum-Head-Change  Column Row Layer    Maximum-Flux-Residual          L2-NORM 
          0                 1           2             6   13     1       0.1029246108E-01       6   13    1         0.5471289038E+00      0.1551494802E+01
          0                 2           2            10   10     1       0.2163484030E-02       2   13    1         0.6442244874E-01      0.3671904601E+00
          0                 3           2            10   10     1       0.9723563782E-03      10   10    1         0.2525289362E-01      0.1335749852E+00
          0                 4           2            10   10     1       0.4370151953E-03      10   10    1         0.1134965879E-01      0.5798928657E-01
          0                 5           2            10   10     1       0.1964114968E-03      10   10    1         0.5100981555E-02      0.2586078343E-01
          0                 6           1            10   10     1       0.8827476489E-04      10   10    1         0.2292577337E-02      0.1157674889E-01
          0                 7           1            10   10     1       0.3967395779E-04      10   10    1         0.1030370770E-02      0.5185508897E-02
          0                 8           1            10   10     1       0.1783092125E-04      10   10    1         0.4630867548E-03      0.2323017060E-02
          0                 9           1            10   10     1       0.8013851959E-05      10   10    1         0.2081279856E-03      0.1040731686E-02

    ------------------------------------------------
       NWT REQUIRED            9 OUTER ITERATIONS 
       AND A TOTAL OF         14 INNER ITERATIONS.
    ------------------------------------------------

 NO OUTPUT CONTROL FOR STRESS PERIOD   11   TIME STEP   12
 
 SOLVING FOR HEAD 
                                                   Max.-Head-Change                         Max.-Flux-Residual
  Residual-Control   Outer-Iter.   Inner-Iter.     Column Row Layer    Maximum-Head-Change  Column Row Layer    Maximum-Flux-Residual          L2-NORM 
          0                 1           2             6   13     1       0.1031736272E-01       6   13    1         0.5483527366E+00      0.1566225463E+01
          0                 2           2            10   10     1       0.2162577548E-02      10   10    1         0.5616391477E-01      0.3547695873E+00
          0                 3           2            10   10     1       0.9719473331E-03      10   10    1         0.2524230513E-01      0.1330385175E+00
          0                 4           2            10   10     1       0.4368306194E-03      10   10    1         0.1134488081E-01      0.5790846356E-01
          0                 5           2            10   10     1       0.1963282108E-03      10   10    1         0.5098825556E-02      0.2582874388E-01
          0                 6           1            10   10     1       0.8823718420E-04      10   10    1         0.2291604487E-02      0.1156262776E-01
          0                 7           1            10   10     1       0.3965700076E-04      10   10    1         0.1029931801E-02      0.5179224335E-02
          0                 8           1            10   10     1       0.1782327011E-04      10   10    1         0.4628886885E-03      0.2320215885E-02
          0                 9           1            10   10     1       0.8010399926E-05      10   10    1         0.2080386194E-03      0.1039481918E-02

    ------------------------------------------------
       NWT REQUIRED            9 OUTER ITERATIONS 
       AND A TOTAL OF         14 INNER ITERATIONS.
    ------------------------------------------------

 NO OUTPUT CONTROL FOR STRESS PERIOD   11   TIME STEP   13
 
 SOLVING FOR HEAD 
                                                   Max.-Head-Change                         Max.-Flux-Residual
  Residual-Control   Outer-Iter.   Inner-Iter.     Column Row Layer    Maximum-Head-Change  Column Row Layer    Maximum-Flux-Residual          L2-NORM 
          0                 1           2             6   13     1       0.1015424387E-01       6   13    1         0.5396453347E+00      0.1559165231E+01
          0                 2           2            10   10     1       0.2161716005E-02      10   10    1         0.5614161578E-01      0.3560963136E+00
          0                 3           2            10   10     1       0.9715585143E-03      10   10    1         0.2523224133E-01      0.1329126508E+00
          0                 4           2            10   10     1       0.4366551467E-03      10   10    1         0.1134033898E-01      0.5783999145E-01
          0                 5           2            10   10     1       0.1962490219E-03      10   10    1         0.5096775848E-02      0.2579819809E-01
          0                 6           1            10   10     1       0.8820144784E-04      10   10    1         0.2290679480E-02      0.1154902981E-01
          0                 7           1            10   10     1       0.3964087410E-04      10   10    1         0.1029514366E-02      0.5173164368E-02
          0                 8           1            10   10     1       0.1781599262E-04      10   10    1         0.4627003125E-03      0.2317513842E-02
          0                 9           1            10   10     1       0.8007116218E-05      10   10    1         0.2079536138E-03      0.1038277012E-02

    ------------------------------------------------
       NWT REQUIRED            9 OUTER ITERATIONS 
       AND A TOTAL OF         14 INNER ITERATIONS.
    ------------------------------------------------

 NO OUTPUT CONTROL FOR STRESS PERIOD   11   TIME STEP   14
 
 SOLVING FOR HEAD 
                                                   Max.-Head-Change                         Max.-Flux-Residual
  Residual-Control   Outer-Iter.   Inner-Iter.     Column Row Layer    Maximum-Head-Change  Column Row Layer    Maximum-Flux-Residual          L2-NORM 
          0                 1           2             6   13     1       0.9943131354E-02       6   13    1         0.5283990955E+00      0.1545751878E+01
          0                 2           2            10   10     1       0.2160802073E-02      10   10    1         0.5611795714E-01      0.3552342421E+00
          0                 3           2            10   10     1       0.9711461302E-03      10   10    1         0.2522156592E-01      0.1327517711E+00
          0                 4           2            10   10     1       0.4364690738E-03      10   10    1         0.1133552204E-01      0.5777242406E-01
          0                 5           2            10   10     1       0.1961650656E-03      10   10    1         0.5094602400E-02      0.2576811974E-01
          0                 6           1            10   10     1       0.8816356727E-04      10   10    1         0.2289698818E-02      0.1153562426E-01
          0                 7           1            10   10     1       0.3962378301E-04      10   10    1         0.1029071900E-02      0.5167187789E-02
          0                 8           1            10   10     1       0.1780828145E-04      10   10    1         0.4625006755E-03      0.2314848466E-02
          0                 9           1            10   10     1       0.8003637174E-05      10   10    1         0.2078635410E-03      0.1037087719E-02

    ------------------------------------------------
       NWT REQUIRED            9 OUTER ITERATIONS 
       AND A TOTAL OF         14 INNER ITERATIONS.
    ------------------------------------------------

 OUTPUT CONTROL FOR STRESS PERIOD   11   TIME STEP   15
    PRINT BUDGET
    PRINT HEAD FOR ALL LAYERS
    SAVE HEAD FOR ALL LAYERS
    SAVE BUDGET
 UBUDSV SAVING "         STORAGE" ON UNIT102 AT TIME STEP    15, STRESS PERIOD   11
 UBUDSV SAVING "   CONSTANT HEAD" ON UNIT102 AT TIME STEP    15, STRESS PERIOD   11
 UBUDSV SAVING "FLOW RIGHT FACE " ON UNIT102 AT TIME STEP    15, STRESS PERIOD   11
 UBUDSV SAVING "FLOW FRONT FACE " ON UNIT102 AT TIME STEP    15, STRESS PERIOD   11

  HEAD DEP BOUNDS   PERIOD   11   STEP    15
 BOUNDARY      1   LAYER   1   ROW    13   COL     1   RATE   -0.286014    
 BOUNDARY      2   LAYER   1   ROW    14   COL     9   RATE    0.273461    



 STREAM LISTING     PERIOD     11   STEP       15

 LAYER ROW COL. STREAM  RCH.  FLOW INTO     FLOW TO   FLOW OUT OF   OVRLND.     DIRECT     STREAM       STREAM     STREAM     STREAM   STREAMBED  STREAMBED
                SEG.NO.  NO.  STRM. RCH.    AQUIFER    STRM. RCH.    RUNOFF     PRECIP       ET          HEAD       DEPTH      WIDTH   CONDCTNC.   GRADIENT

   1    1    1     1     1    7.0000E+00  1.1914E-01   6.8809E+00  0.000E+00  0.000E+00  0.000E+00  1.09385E+03  7.984E-01  6.970E+00  3.137E-02  1.266E+00
   1    2    2     1     2    6.8809E+00  1.8311E-01   6.6977E+00  0.000E+00  0.000E+00  0.000E+00  1.08885E+03  7.942E-01  6.894E+00  4.826E-02  1.265E+00
   1    3    3     1     3    6.6977E+00  1.5480E-01   6.5429E+00  0.000E+00  0.000E+00  0.000E+00  1.08321E+03  7.894E-01  6.809E+00  4.085E-02  1.263E+00
   1    3    4     1     4    6.5429E+00  1.4143E-01   6.4015E+00  0.000E+00  0.000E+00  0.000E+00  1.07819E+03  7.852E-01  6.732E+00  3.737E-02  1.262E+00
   1    4    5     2     1    4.4015E+00  2.6661E-01   4.1349E+00  0.000E+00  0.000E+00  0.000E+00  1.07235E+03  4.181E-01  1.200E+01  7.800E-02  1.139E+00
   1    5    6     2     2    4.1349E+00  2.0425E-01   3.9306E+00  0.000E+00  0.000E+00  0.000E+00  1.06691E+03  4.041E-01  1.200E+01  6.000E-02  1.135E+00
   1    6    6     2     3    3.9306E+00  2.0350E-01   3.7271E+00  0.000E+00  0.000E+00  0.000E+00  1.06218E+03  3.917E-01  1.200E+01  6.000E-02  1.131E+00
   1    7    6     2     4    3.7271E+00  2.0275E-01   3.5244E+00  0.000E+00  0.000E+00  0.000E+00  1.05745E+03  3.791E-01  1.200E+01  6.000E-02  1.126E+00
   1    8    6     2     5    3.5244E+00  2.0198E-01   3.3224E+00  0.000E+00  0.000E+00  0.000E+00  1.05272E+03  3.663E-01  1.200E+01  6.000E-02  1.122E+00
   1    3    5     3     1    2.0000E+00  2.8252E-01   1.7175E+00  0.000E+00  0.000E+00  0.000E+00  1.07555E+03  1.909E+00  9.636E+00  7.227E-02  1.955E+00
   1    3    6     3     2    1.7175E+00  2.4905E-01   1.4684E+00  0.000E+00  0.000E+00  0.000E+00  1.07264E+03  1.727E+00  8.909E+00  6.682E-02  1.864E+00
   1    3    7     3     3    1.4684E+00  1.9718E-01   1.2712E+00  0.000E+00  0.000E+00  0.000E+00  1.06987E+03  1.555E+00  8.218E+00  5.547E-02  1.777E+00
   1    4    8     3     4    1.2712E+00  2.2567E-01   1.0456E+00  0.000E+00  0.000E+00  0.000E+00  1.06682E+03  1.364E+00  7.455E+00  6.709E-02  1.682E+00
   1    5    8     3     5    1.0456E+00  1.5790E-01   8.8768E-01  0.000E+00  0.000E+00  0.000E+00  1.06362E+03  1.164E+00  6.655E+00  4.991E-02  1.582E+00
   1    6    8     3     6    8.8768E-01  5.5980E-02   8.3170E-01  0.000E+00  0.000E+00  0.000E+00  1.06158E+03  1.036E+00  6.145E+00  1.844E-02  1.518E+00
   1    5   10     4     1    1.0000E+01  9.0919E-02   9.9091E+00  0.000E+00  0.000E+00  0.000E+00  1.07836E+03  6.368E-01  1.000E+01  2.500E-02  1.212E+00
   1    5    9     4     2    9.9091E+00  1.8158E-01   9.7275E+00  0.000E+00  0.000E+00  0.000E+00  1.07154E+03  6.315E-01  1.000E+01  5.000E-02  1.211E+00
   1    6    8     4     3    9.7275E+00  1.2689E-01   9.6006E+00  0.000E+00  0.000E+00  0.000E+00  1.06381E+03  6.256E-01  1.000E+01  3.500E-02  1.209E+00
   1    6    8     5     1    1.0432E+01  2.2686E-01   1.0205E+01  0.000E+00  0.000E+00  0.000E+00  1.05868E+03  6.790E-01  1.542E+01  6.166E-02  1.226E+00
   1    7    7     5     2    1.0205E+01  2.7894E-01   9.9265E+00  0.000E+00  0.000E+00  0.000E+00  1.05417E+03  6.732E-01  1.519E+01  7.594E-02  1.224E+00
   1    8    7     5     3    9.9265E+00  1.9221E-01   9.7343E+00  0.000E+00  0.000E+00  0.000E+00  1.04992E+03  6.676E-01  1.497E+01  5.241E-02  1.223E+00
   1    8    6     5     4    9.7343E+00  1.3577E-01   9.5985E+00  0.000E+00  0.000E+00  0.000E+00  1.04691E+03  6.637E-01  1.482E+01  3.706E-02  1.221E+00
   1    9    6     6     1    1.2921E+01  2.2904E-01   1.2692E+01  0.000E+00  0.000E+00  0.000E+00  1.04354E+03  8.174E-01  1.200E+01  6.000E-02  1.272E+00
   1   10    7     6     2    1.2692E+01  2.2852E-01   1.2463E+01  0.000E+00  0.000E+00  0.000E+00  1.03899E+03  8.086E-01  1.200E+01  6.000E-02  1.270E+00
   1   11    7     6     3    1.2463E+01  2.2799E-01   1.2235E+01  0.000E+00  0.000E+00  0.000E+00  1.03444E+03  7.998E-01  1.200E+01  6.000E-02  1.267E+00
   1   12    7     6     4    1.2235E+01  2.2745E-01   1.2008E+01  0.000E+00  0.000E+00  0.000E+00  1.02988E+03  7.909E-01  1.200E+01  6.000E-02  1.264E+00
   1   13    7     6     5    1.2008E+01 -1.1304E-01   1.2121E+01  0.000E+00  0.000E+00  0.000E+00  1.02670E+03  7.886E-01  1.200E+01  2.400E-01 -1.570E-01
   1   14    9     7     1    1.5000E+02  1.1551E+00   1.4884E+02  0.000E+00  0.000E+00  0.000E+00  1.03987E+03  2.288E+00  5.530E+01  5.593E-01  6.884E-01
   1   13    8     7     2    1.4884E+02  1.6681E+00   1.4718E+02  0.000E+00  0.000E+00  0.000E+00  1.03478E+03  2.281E+00  5.526E+01  6.149E-01  9.044E-01
   1   13    7     7     3    1.4718E+02  1.4093E+00   1.4577E+02  0.000E+00  0.000E+00  0.000E+00  1.02969E+03  2.272E+00  5.523E+01  5.586E-01  8.410E-01
   1   13    6     8     1    1.5789E+02  8.2020E-01   1.5707E+02  0.000E+00  0.000E+00  0.000E+00  1.02474E+03  2.869E+00  4.160E+01  4.239E-01  6.450E-01
   1   13    5     8     2    1.5707E+02  7.2761E-02   1.5700E+02  0.000E+00  0.000E+00  0.000E+00  1.01849E+03  2.866E+00  4.155E+01  4.234E-01  5.728E-02
   1   13    4     8     3    1.5700E+02 -3.0462E+00   1.6004E+02  0.000E+00  0.000E+00  0.000E+00  1.01225E+03  2.876E+00  4.170E+01  4.249E+00 -2.390E-01
   1   13    3     8     4    1.6004E+02 -4.0914E+00   1.6413E+02  0.000E+00  0.000E+00  0.000E+00  1.00602E+03  2.900E+00  4.205E+01  4.285E+00 -3.183E-01
   1   13    2     8     5    1.6413E+02 -2.6868E+00   1.6682E+02  0.000E+00  0.000E+00  0.000E+00  9.99797E+02  2.922E+00  4.238E+01  4.318E+00 -2.074E-01
   1   13    1     8     6    1.6682E+02 -1.8599E+00   1.6868E+02  0.000E+00  0.000E+00  0.000E+00  9.94812E+02  2.937E+00  4.259E+01  2.604E+00 -2.381E-01
   1    6    8     9     1    0.0000E+00  0.0000E+00   0.0000E+00  0.000E+00  0.000E+00  0.000E+00  1.07850E+03  0.000E+00  4.000E+00  0.000E+00  1.000E+00



 UBDSV3 SAVING "     NETRECHARGE" ON UNIT 100 AT TIME STEP    15, STRESS PERIOD  11
 UBDSV3 SAVING "    NETDISCHARGE" ON UNIT 101 AT TIME STEP    15, STRESS PERIOD  11
 UBDSV3 SAVING "           GW ET" ON UNIT  61 AT TIME STEP    15, STRESS PERIOD  11
 UBDSV3 SAVING "    UZF RECHARGE" ON UNIT  61 AT TIME STEP    15, STRESS PERIOD  11
 UBDSV3 SAVING " SURFACE LEAKAGE" ON UNIT  61 AT TIME STEP    15, STRESS PERIOD  11
 UBDSV3 SAVING "       HORT+DUNN" ON UNIT  61 AT TIME STEP    15, STRESS PERIOD  11
 UBDSV3 SAVING "  STORAGE CHANGE" ON UNIT  61 AT TIME STEP    15, STRESS PERIOD  11


UNSATURATED ZONE PACKAGE VOLUMETRIC BUDGET FOR  TIME STEP    15 STRESS PERIOD   11
  ------------------------------------------------------------------------------



     CUMULATIVE VOLUMES      L**3       RATES FOR THIS TIME STEP      L**3/T
     ------------------                 ------------------------

           IN:                                      IN:
           ---                                      ---
        INFILTRATION =    26615969.2213          INFILTRATION =       0.0000E+00

          OUT:                                     OUT:
          ----                                     ----
              UZF ET =   553666159.7491                UZF ET =           0.1500
        UZF RECHARGE =   626787844.2306          UZF RECHARGE =          22.3331

            IN - OUT = -1153838034.7584              IN - OUT =         -22.4831

          STORAGE:                                 STORAGE:
          --------                                 --------
      STORAGE CHANGE = -1153812565.5376        STORAGE CHANGE =         -22.4831

 PERCENT DISCREPANCY IS DIFFERENCE BETWEEN IN-OUT MINUS CHANGE IN STORAGE
 DIVIDED BY THE AVERAGE OF IN AND OUT TIMES 100

 PERCENT DISCREPANCY =          -0.00     PERCENT DISCREPANCY =           0.00






1
              HEAD IN LAYER   1 AT END OF TIME STEP    15 IN STRESS PERIOD   11
  -----------------------------------------------------------------------------

           1       2       3       4       5       6       7       8       9      10
 ...................................................................................
   1  1035.37 1033.62 6999.00 6999.00 6999.00 6999.00 6999.00 6999.00 6999.00 6999.00
   2  1034.94 1033.30 1032.38 6999.00 6999.00 1033.90 1034.12 1034.20 6999.00 6999.00
   3  6999.00 1032.51 1031.83 1031.44 1031.93 1032.62 1033.34 1033.54 6999.00 6999.00
   4  1031.93 1031.76 1031.17 1030.60 1030.54 1030.55 1031.28 1032.56 1032.45 6999.00
   5  1031.46 1030.89 1030.26 1029.74 1029.75 1029.91 1030.04 1030.52 1031.16 1031.57
   6  1030.87 1030.08 1029.36 1028.90 1028.95 1029.25 1029.52 1030.07 1030.99 1032.29
   7  1030.35 1029.06 1028.33 1027.92 1028.04 1028.45 1028.88 1029.43 1030.74 6999.00
   8  6999.00 1027.57 1027.05 1026.75 1026.93 1027.43 1027.90 1029.04 1030.35 6999.00
   9  6999.00 1025.32 1025.17 1025.17 1025.50 1026.17 1026.75 1028.13 1029.85 6999.00
  10  6999.00 1022.24 1022.54 1023.14 1023.88 1024.91 1025.91 1027.63 1029.83 1030.58
  11  6999.00 1017.32 1018.20 1020.44 1022.04 1023.80 1025.43 1027.86 1030.66 6999.00
  12  1003.28 1009.00 1012.71 1016.68 1019.91 1022.91 1025.46 1029.25 1032.95 6999.00
  13   995.53 1000.42 1006.98 1012.97 1018.32 1022.81 1027.17 1032.07 1035.26 6999.00
  14  6999.00 1007.59 1010.29 1014.84 1019.52 1023.94 1028.68 1033.98 1037.80 6999.00
  15  6999.00 6999.00 1014.84 1017.53 1020.96 1023.82 6999.00 6999.00 6999.00 6999.00

 HEAD WILL BE SAVED ON UNIT   62 AT END OF TIME STEP   15, STRESS PERIOD   11
1
  VOLUMETRIC BUDGET FOR ENTIRE MODEL AT END OF TIME STEP   15, STRESS PERIOD  11
  ------------------------------------------------------------------------------

     CUMULATIVE VOLUMES      L**3       RATES FOR THIS TIME STEP      L**3/T
     ------------------                 ------------------------

           IN:                                      IN:
           ---                                      ---
             STORAGE     =    31612454.0000               STORAGE     =       1.3299E-02
       CONSTANT HEAD     =           0.0000         CONSTANT HEAD     =           0.0000
               WELLS     =           0.0000                 WELLS     =           0.0000
     HEAD DEP BOUNDS     =     6929394.0000       HEAD DEP BOUNDS     =           0.2735
      STREAM LEAKAGE     =   294399840.0000        STREAM LEAKAGE     =          10.1176
        UZF RECHARGE     =   626788032.0000          UZF RECHARGE     =          22.3331
               GW ET     =           0.0000                 GW ET     =           0.0000
     SURFACE LEAKAGE     =           0.0000       SURFACE LEAKAGE     =           0.0000
    SUPPLEMENTARY WELLS  =           0.0000      SUPPLEMENTARY WELLS  =           0.0000

                TOTAL IN =   959729728.0000                  TOTAL IN =          32.7374

          OUT:                                     OUT:
          ----                                     ----
             STORAGE     =   621682432.0000               STORAGE     =          20.4757
       CONSTANT HEAD     =           0.0000         CONSTANT HEAD     =           0.0000
               WELLS     =           0.0000                 WELLS     =           0.0000
     HEAD DEP BOUNDS     =     7204608.5000       HEAD DEP BOUNDS     =           0.2860
      STREAM LEAKAGE     =   247246400.0000        STREAM LEAKAGE     =          11.7974
        UZF RECHARGE     =           0.0000          UZF RECHARGE     =           0.0000
               GW ET     =    83456920.0000                 GW ET     =           0.1750
     SURFACE LEAKAGE     =           0.0000       SURFACE LEAKAGE     =           0.0000
    SUPPLEMENTARY WELLS  =       36404.7930      SUPPLEMENTARY WELLS  =           0.0000

               TOTAL OUT =   959626752.0000                 TOTAL OUT =          32.7341

                IN - OUT =      102976.0000                  IN - OUT =       3.2806E-03

     PERCENT DISCREPANCY =           0.01         PERCENT DISCREPANCY =           0.01






         TIME SUMMARY AT END OF TIME STEP   15 IN STRESS PERIOD   11
                    SECONDS     MINUTES      HOURS       DAYS        YEARS
                    -----------------------------------------------------------
   TIME STEP LENGTH  87600.      1460.0      24.333      1.0139     2.77588E-03
 STRESS PERIOD TIME 1.31400E+06  21900.      365.00      15.208     4.16381E-02
         TOTAL TIME 2.50524E+07 4.17540E+05  6959.0      289.96     0.79386    
1
 
 SOLVING FOR HEAD 
                                                   Max.-Head-Change                         Max.-Flux-Residual
  Residual-Control   Outer-Iter.   Inner-Iter.     Column Row Layer    Maximum-Head-Change  Column Row Layer    Maximum-Flux-Residual          L2-NORM 
          0                 1           2             6   13     1       0.9737405685E-02       6   13    1         0.5174305608E+00      0.1533249615E+01
          0                 2           2            10   10     1       0.2159932947E-02      10   10    1         0.5609546301E-01      0.3544415334E+00
          0                 3           2            10   10     1       0.9707538660E-03      10   10    1         0.2521141342E-01      0.1325973827E+00
          0                 4           2            10   10     1       0.4362920365E-03      10   10    1         0.1133093991E-01      0.5770647241E-01
          0                 5           2            10   10     1       0.1960851661E-03      10   10    1         0.5092534389E-02      0.2573863047E-01
          0                 6           1            10   10     1       0.8812750826E-04      10   10    1         0.2288765505E-02      0.1152245388E-01
          0                 7           1            10   10     1       0.3960751004E-04      10   10    1         0.1028650698E-02      0.5161320319E-02
          0                 8           1            10   10     1       0.1780093794E-04      10   10    1         0.4623105961E-03      0.2312253323E-02
          0                 9           1            10   10     1       0.8000322952E-05      10   10    1         0.2077777619E-03      0.1035917025E-02

    ------------------------------------------------
       NWT REQUIRED            9 OUTER ITERATIONS 
       AND A TOTAL OF         14 INNER ITERATIONS.
    ------------------------------------------------

 NO OUTPUT CONTROL FOR STRESS PERIOD   11   TIME STEP   16
 
 SOLVING FOR HEAD 
                                                   Max.-Head-Change                         Max.-Flux-Residual
  Residual-Control   Outer-Iter.   Inner-Iter.     Column Row Layer    Maximum-Head-Change  Column Row Layer    Maximum-Flux-Residual          L2-NORM 
          0                 1           2             6   13     1       0.9537064152E-02       6   13    1         0.5067487713E+00      0.1521591669E+01
          0                 2           2            10   10     1       0.2159011497E-02      10   10    1         0.5607160861E-01      0.3536973762E+00
          0                 3           2            10   10     1       0.9703381139E-03      10   10    1         0.2520065032E-01      0.1324447503E+00
          0                 4           2            10   10     1       0.4361044557E-03      10   10    1         0.1132608369E-01      0.5764060961E-01
          0                 5           2            10   10     1       0.1960005341E-03      10   10    1         0.5090343349E-02      0.2570918851E-01
          0                 6           1            10   10     1       0.8808932556E-04      10   10    1         0.2287776968E-02      0.1150932140E-01
          0                 7           1            10   10     1       0.3959028339E-04      10   10    1         0.1028204701E-02      0.5155467617E-02
          0                 8           1            10   10     1       0.1779316599E-04      10   10    1         0.4621093775E-03      0.2309607692E-02
          0                 9           1            10   10     1       0.7996816896E-05      10   10    1         0.2076869812E-03      0.1034749626E-02

    ------------------------------------------------
       NWT REQUIRED            9 OUTER ITERATIONS 
       AND A TOTAL OF         14 INNER ITERATIONS.
    ------------------------------------------------

 NO OUTPUT CONTROL FOR STRESS PERIOD   11   TIME STEP   17
 
 SOLVING FOR HEAD 
                                                   Max.-Head-Change                         Max.-Flux-Residual
  Residual-Control   Outer-Iter.   Inner-Iter.     Column Row Layer    Maximum-Head-Change  Column Row Layer    Maximum-Flux-Residual          L2-NORM 
          0                 1           2             6   13     1       0.9341949517E-02       6   13    1         0.4963458399E+00      0.1510525242E+01
          0                 2           2            10   10     1       0.2158134918E-02      10   10    1         0.5604892041E-01      0.3529633946E+00
          0                 3           2            10   10     1       0.9699425108E-03      10   10    1         0.2519041087E-01      0.1322922132E+00
          0                 4           2            10   10     1       0.4359259222E-03      10   10    1         0.1132146261E-01      0.5757500967E-01
          0                 5           2            10   10     1       0.1959199650E-03      10   10    1         0.5088257893E-02      0.2567988707E-01
          0                 6           1            10   10     1       0.8805296616E-04      10   10    1         0.2286835832E-02      0.1149623604E-01
          0                 7           1            10   10     1       0.3957387586E-04      10   10    1         0.1027779995E-02      0.5149608701E-02
          0                 8           1            10   10     1       0.1778576220E-04      10   10    1         0.4619177237E-03      0.2307001841E-02
          0                 9           1            10   10     1       0.7993475912E-05      10   10    1         0.2076004969E-03      0.1033584672E-02

    ------------------------------------------------
       NWT REQUIRED            9 OUTER ITERATIONS 
       AND A TOTAL OF         14 INNER ITERATIONS.
    ------------------------------------------------

 NO OUTPUT CONTROL FOR STRESS PERIOD   11   TIME STEP   18
 
 SOLVING FOR HEAD 
                                                   Max.-Head-Change                         Max.-Flux-Residual
  Residual-Control   Outer-Iter.   Inner-Iter.     Column Row Layer    Maximum-Head-Change  Column Row Layer    Maximum-Flux-Residual          L2-NORM 
          0                 1           2             6   13     1       0.9151726379E-02       6   13    1         0.4862187061E+00      0.1499736838E+01
          0                 2           2            10   10     1       0.2157206059E-02      10   10    1         0.5602487306E-01      0.3522460962E+00
          0                 3           2            10   10     1       0.9695234402E-03      10   10    1         0.2517956134E-01      0.1321465227E+00
          0                 4           2            10   10     1       0.4357368550E-03      10   10    1         0.1131656767E-01      0.5751267663E-01
          0                 5           2            10   10     1       0.1958346674E-03      10   10    1         0.5086049507E-02      0.2565190646E-01
          0                 6           1            10   10     1       0.8801448508E-04      10   10    1         0.2285839522E-02      0.1148367924E-01
          0                 7           1            10   10     1       0.3955651565E-04      10   10    1         0.1027330517E-02      0.5143976276E-02
          0                 8           1            10   10     1       0.1777793048E-04      10   10    1         0.4617149484E-03      0.2304476190E-02
          0                 9           1            10   10     1       0.7989942844E-05      10   10    1         0.2075090194E-03      0.1032452231E-02

    ------------------------------------------------
       NWT REQUIRED            9 OUTER ITERATIONS 
       AND A TOTAL OF         14 INNER ITERATIONS.
    ------------------------------------------------

 NO OUTPUT CONTROL FOR STRESS PERIOD   11   TIME STEP   19
 
 SOLVING FOR HEAD 
                                                   Max.-Head-Change                         Max.-Flux-Residual
  Residual-Control   Outer-Iter.   Inner-Iter.     Column Row Layer    Maximum-Head-Change  Column Row Layer    Maximum-Flux-Residual          L2-NORM 
          0                 1           2             6   13     1       0.8965808064E-02       6   13    1         0.4763248877E+00      0.1489629094E+01
          0                 2           2            10   10     1       0.2156273436E-02      10   10    1         0.5600072995E-01      0.3515902208E+00
          0                 3           2            10   10     1       0.9691026372E-03      10   10    1         0.2516866767E-01      0.1320121781E+00
          0                 4           2            10   10     1       0.4355469910E-03      10   10    1         0.1131165243E-01      0.5745448511E-01
          0                 5           2            10   10     1       0.1957490034E-03      10   10    1         0.5083831784E-02      0.2562562454E-01
          0                 6           1            10   10     1       0.8797583592E-04      10   10    1         0.2284838927E-02      0.1147182726E-01
          0                 7           1            10   10     1       0.3953907841E-04      10   10    1         0.1026879074E-02      0.5138637436E-02
          0                 8           1            10   10     1       0.1777006348E-04      10   10    1         0.4615112747E-03      0.2302073000E-02
          0                 9           1            10   10     1       0.7986393768E-05      10   10    1         0.2074171312E-03      0.1031370985E-02

    ------------------------------------------------
       NWT REQUIRED            9 OUTER ITERATIONS 
       AND A TOTAL OF         14 INNER ITERATIONS.
    ------------------------------------------------

 NO OUTPUT CONTROL FOR STRESS PERIOD   11   TIME STEP   20
 
 SOLVING FOR HEAD 
                                                   Max.-Head-Change                         Max.-Flux-Residual
  Residual-Control   Outer-Iter.   Inner-Iter.     Column Row Layer    Maximum-Head-Change  Column Row Layer    Maximum-Flux-Residual          L2-NORM 
          0                 1           2             6   13     1       0.8784745092E-02       6   13    1         0.4666690847E+00      0.1480296888E+01
          0                 2           2            10   10     1       0.2155385810E-02      10   10    1         0.5597775398E-01      0.3509531691E+00
          0                 3           2            10   10     1       0.9687020876E-03      10   10    1         0.2515829938E-01      0.1318628047E+00
          0                 4           2            10   10     1       0.4353662432E-03      10   10    1         0.1130697366E-01      0.5738903042E-01
          0                 5           2            10   10     1       0.1956674429E-03      10   10    1         0.5081720502E-02      0.2559632379E-01
          0                 6           1            10   10     1       0.8793903308E-04      10   10    1         0.2283886233E-02      0.1145874296E-01
          0                 7           1            10   10     1       0.3952247203E-04      10   10    1         0.1026449191E-02      0.5132796874E-02
          0                 8           1            10   10     1       0.1776257066E-04      10   10    1         0.4613173078E-03      0.2299464742E-02
          0                 9           1            10   10     1       0.7983013017E-05      10   10    1         0.2073296140E-03      0.1030206997E-02

    ------------------------------------------------
       NWT REQUIRED            9 OUTER ITERATIONS 
       AND A TOTAL OF         14 INNER ITERATIONS.
    ------------------------------------------------

 NO OUTPUT CONTROL FOR STRESS PERIOD   11   TIME STEP   21
 
 SOLVING FOR HEAD 
                                                   Max.-Head-Change                         Max.-Flux-Residual
  Residual-Control   Outer-Iter.   Inner-Iter.     Column Row Layer    Maximum-Head-Change  Column Row Layer    Maximum-Flux-Residual          L2-NORM 
          0                 1           2             6   13     1       0.8608382858E-02       6   13    1         0.4572641438E+00      0.1471392799E+01
          0                 2           2            10   10     1       0.2154445785E-02      10   10    1         0.5595341801E-01      0.3503241705E+00
          0                 3           2            10   10     1       0.9682779710E-03      10   10    1         0.2514731938E-01      0.1317143801E+00
          0                 4           2            10   10     1       0.4351748960E-03      10   10    1         0.1130201976E-01      0.5732441109E-01
          0                 5           2            10   10     1       0.1955811151E-03      10   10    1         0.5079485474E-02      0.2556743142E-01
          0                 6           1            10   10     1       0.8790008654E-04      10   10    1         0.2282877886E-02      0.1144584144E-01
          0                 7           1            10   10     1       0.3950490198E-04      10   10    1         0.1025994278E-02      0.5127036577E-02
          0                 8           1            10   10     1       0.1775464389E-04      10   10    1         0.4611120744E-03      0.2296892960E-02
          0                 9           1            10   10     1       0.7979437179E-05      10   10    1         0.2072370274E-03      0.1029057572E-02

    ------------------------------------------------
       NWT REQUIRED            9 OUTER ITERATIONS 
       AND A TOTAL OF         14 INNER ITERATIONS.
    ------------------------------------------------

 NO OUTPUT CONTROL FOR STRESS PERIOD   11   TIME STEP   22
 
 SOLVING FOR HEAD 
                                                   Max.-Head-Change                         Max.-Flux-Residual
  Residual-Control   Outer-Iter.   Inner-Iter.     Column Row Layer    Maximum-Head-Change  Column Row Layer    Maximum-Flux-Residual          L2-NORM 
          0                 1           2             6   13     1       0.8436668190E-02       6   13    1         0.4481077161E+00      0.1462873354E+01
          0                 2           2            10   10     1       0.2153502307E-02      10   10    1         0.5592898975E-01      0.3497178658E+00
          0                 3           2            10   10     1       0.9678523563E-03      10   10    1         0.2513629933E-01      0.1315669393E+00
          0                 4           2            10   10     1       0.4349828995E-03      10   10    1         0.1129704850E-01      0.5725980848E-01
          0                 5           2            10   10     1       0.1954945064E-03      10   10    1         0.5077242925E-02      0.2553852092E-01
          0                 6           1            10   10     1       0.8786101844E-04      10   10    1         0.2281866288E-02      0.1143292913E-01
          0                 7           1            10   10     1       0.3948727891E-04      10   10    1         0.1025537960E-02      0.5121271090E-02
          0                 8           1            10   10     1       0.1774669536E-04      10   10    1         0.4609062452E-03      0.2294317995E-02
          0                 9           1            10   10     1       0.7975851588E-05      10   10    1         0.2071441787E-03      0.1027907621E-02

    ------------------------------------------------
       NWT REQUIRED            9 OUTER ITERATIONS 
       AND A TOTAL OF         14 INNER ITERATIONS.
    ------------------------------------------------

 NO OUTPUT CONTROL FOR STRESS PERIOD   11   TIME STEP   23
 
 SOLVING FOR HEAD 
                                                   Max.-Head-Change                         Max.-Flux-Residual
  Residual-Control   Outer-Iter.   Inner-Iter.     Column Row Layer    Maximum-Head-Change  Column Row Layer    Maximum-Flux-Residual          L2-NORM 
          0                 1           2             6   13     1       0.8269261406E-02       6   13    1         0.4391809019E+00      0.1454808827E+01
          0                 2           2            10   10     1       0.2152603719E-02      10   10    1         0.5590573041E-01      0.3491308542E+00
          0                 3           2            10   10     1       0.9674468528E-03      10   10    1         0.2512580294E-01      0.1314209107E+00
          0                 4           2            10   10     1       0.4347999133E-03      10   10    1         0.1129231184E-01      0.5719580241E-01
          0                 5           2            10   10     1       0.1954119345E-03      10   10    1         0.5075105484E-02      0.2550986974E-01
          0                 6           1            10   10     1       0.8782375890E-04      10   10    1         0.2280901777E-02      0.1142012576E-01
          0                 7           1            10   10     1       0.3947046669E-04      10   10    1         0.1025102743E-02      0.5115551373E-02
          0                 8           1            10   10     1       0.1773910924E-04      10   10    1         0.4607098629E-03      0.2291762582E-02
          0                 9           1            10   10     1       0.7972428568E-05      10   10    1         0.2070555691E-03      0.1026765677E-02

    ------------------------------------------------
       NWT REQUIRED            9 OUTER ITERATIONS 
       AND A TOTAL OF         14 INNER ITERATIONS.
    ------------------------------------------------

 NO OUTPUT CONTROL FOR STRESS PERIOD   11   TIME STEP   24
 
 SOLVING FOR HEAD 
                                                   Max.-Head-Change                         Max.-Flux-Residual
  Residual-Control   Outer-Iter.   Inner-Iter.     Column Row Layer    Maximum-Head-Change  Column Row Layer    Maximum-Flux-Residual          L2-NORM 
          0                 1           2             6   13     1       0.8106343272E-02       6   13    1         0.4304937458E+00      0.1447271992E+01
          0                 2           2            10   10     1       0.2151652834E-02      10   10    1         0.5588111142E-01      0.3485799237E+00
          0                 3           2            10   10     1       0.9670178758E-03      10   10    1         0.2511469628E-01      0.1312775227E+00
          0                 4           2            10   10     1       0.4346063909E-03      10   10    1         0.1128730126E-01      0.5713225182E-01
          0                 5           2            10   10     1       0.1953246335E-03      10   10    1         0.5072845095E-02      0.2548136403E-01
          0                 6           1            10   10     1       0.8778437692E-04      10   10    1         0.2279882082E-02      0.1140737811E-01
          0                 7           1            10   10     1       0.3945270131E-04      10   10    1         0.1024642749E-02      0.5109853526E-02
          0                 8           1            10   10     1       0.1773109518E-04      10   10    1         0.4605023616E-03      0.2289215636E-02
          0                 9           1            10   10     1       0.7968813963E-05      10   10    1         0.2069619751E-03      0.1025626998E-02

    ------------------------------------------------
       NWT REQUIRED            9 OUTER ITERATIONS 
       AND A TOTAL OF         14 INNER ITERATIONS.
    ------------------------------------------------

 NO OUTPUT CONTROL FOR STRESS PERIOD   11   TIME STEP   25
 
 SOLVING FOR HEAD 
                                                   Max.-Head-Change                         Max.-Flux-Residual
  Residual-Control   Outer-Iter.   Inner-Iter.     Column Row Layer    Maximum-Head-Change  Column Row Layer    Maximum-Flux-Residual          L2-NORM 
          0                 1           2             6   13     1       0.7947571440E-02       6   13    1         0.4220277272E+00      0.1440073725E+01
          0                 2           2            10   10     1       0.2150698400E-02      10   10    1         0.5585639988E-01      0.3480330934E+00
          0                 3           2            10   10     1       0.9665873109E-03      10   10    1         0.2510354822E-01      0.1311340560E+00
          0                 4           2            10   10     1       0.4344121586E-03      10   10    1         0.1128227217E-01      0.5706901006E-01
          0                 5           2            10   10     1       0.1952370151E-03      10   10    1         0.5070576423E-02      0.2545303341E-01
          0                 6           1            10   10     1       0.8774485287E-04      10   10    1         0.2278858684E-02      0.1139471067E-01
          0                 7           1            10   10     1       0.3943487289E-04      10   10    1         0.1024181105E-02      0.5104191574E-02
          0                 8           1            10   10     1       0.1772305311E-04      10   10    1         0.4602941195E-03      0.2286684403E-02
          0                 9           1            10   10     1       0.7965186352E-05      10   10    1         0.2068680405E-03      0.1024495842E-02

    ------------------------------------------------
       NWT REQUIRED            9 OUTER ITERATIONS 
       AND A TOTAL OF         14 INNER ITERATIONS.
    ------------------------------------------------

 NO OUTPUT CONTROL FOR STRESS PERIOD   11   TIME STEP   26
 
 SOLVING FOR HEAD 
                                                   Max.-Head-Change                         Max.-Flux-Residual
  Residual-Control   Outer-Iter.   Inner-Iter.     Column Row Layer    Maximum-Head-Change  Column Row Layer    Maximum-Flux-Residual          L2-NORM 
          0                 1           2             6   13     1       0.7792817631E-02       6   13    1         0.4137765279E+00      0.1433157366E+01
          0                 2           2            10   10     1       0.2149740450E-02      10   10    1         0.5583159670E-01      0.3475049233E+00
          0                 3           2            10   10     1       0.9661551741E-03      10   10    1         0.2509235916E-01      0.1309915296E+00
          0                 4           2            10   10     1       0.4342172228E-03      10   10    1         0.1127722474E-01      0.5700578422E-01
          0                 5           2            10   10     1       0.1951490818E-03      10   10    1         0.5068299552E-02      0.2542467761E-01
          0                 6           1            10   10     1       0.8770518826E-04      10   10    1         0.2277831625E-02      0.1138202798E-01
          0                 7           1            10   10     1       0.3941698145E-04      10   10    1         0.1023717824E-02      0.5098521197E-02
          0                 8           1            10   10     1       0.1771498303E-04      10   10    1         0.4600851475E-03      0.2284149380E-02
          0                 9           1            10   10     1       0.7961546486E-05      10   10    1         0.2067737827E-03      0.1023363776E-02

    ------------------------------------------------
       NWT REQUIRED            9 OUTER ITERATIONS 
       AND A TOTAL OF         14 INNER ITERATIONS.
    ------------------------------------------------

 NO OUTPUT CONTROL FOR STRESS PERIOD   11   TIME STEP   27
 
 SOLVING FOR HEAD 
                                                   Max.-Head-Change                         Max.-Flux-Residual
  Residual-Control   Outer-Iter.   Inner-Iter.     Column Row Layer    Maximum-Head-Change  Column Row Layer    Maximum-Flux-Residual          L2-NORM 
          0                 1           2             6   13     1       0.7642172679E-02       6   13    1         0.4057444628E+00      0.1426630693E+01
          0                 2           2            10   10     1       0.2148779019E-02      10   10    1         0.5580670275E-01      0.3469911200E+00
          0                 3           2            10   10     1       0.9657214798E-03      10   10    1         0.2508112951E-01      0.1308494619E+00
          0                 4           2            10   10     1       0.4340215907E-03      10   10    1         0.1127215914E-01      0.5694280590E-01
          0                 5           2            10   10     1       0.1950608369E-03      10   10    1         0.5066014550E-02      0.2539643977E-01
          0                 6           1            10   10     1       0.8766538384E-04      10   10    1         0.2276800920E-02      0.1137101834E-01
          0                 7           1            10   10     1       0.3939902748E-04      10   10    1         0.1023252911E-02      0.5096878673E-02
          0                 8           1            10   10     1       0.1770688518E-04      10   10    1         0.4598754480E-03      0.2281645087E-02
          0                 9           1            10   10     1       0.7957893615E-05      10   10    1         0.2066791934E-03      0.1022234645E-02

    ------------------------------------------------
       NWT REQUIRED            9 OUTER ITERATIONS 
       AND A TOTAL OF         14 INNER ITERATIONS.
    ------------------------------------------------

 NO OUTPUT CONTROL FOR STRESS PERIOD   11   TIME STEP   28
 
 SOLVING FOR HEAD 
                                                   Max.-Head-Change                         Max.-Flux-Residual
  Residual-Control   Outer-Iter.   Inner-Iter.     Column Row Layer    Maximum-Head-Change  Column Row Layer    Maximum-Flux-Residual          L2-NORM 
          0                 1           2             6   13     1       0.7495307263E-02       6   13    1         0.3979140408E+00      0.1420440794E+01
          0                 2           2            10   10     1       0.2147814142E-02      10   10    1         0.5578171893E-01      0.3465016578E+00
          0                 3           2            10   10     1       0.9652862453E-03      10   10    1         0.2506985967E-01      0.1307100165E+00
          0                 4           2            10   10     1       0.4338252696E-03      10   10    1         0.1126707558E-01      0.5688068290E-01
          0                 5           2            10   10     1       0.1949722848E-03      10   10    1         0.5063721528E-02      0.2536854824E-01
          0                 6           1            10   10     1       0.8762544210E-04      10   10    1         0.2275766632E-02      0.1135690115E-01
          0                 7           1            10   10     1       0.3938101198E-04      10   10    1         0.1022786398E-02      0.5087286887E-02
          0                 8           1            10   10     1       0.1769875958E-04      10   10    1         0.4596650355E-03      0.2279141205E-02
          0                 9           1            10   10     1       0.7954228988E-05      10   10    1         0.2065842957E-03      0.1021110837E-02

    ------------------------------------------------
       NWT REQUIRED            9 OUTER ITERATIONS 
       AND A TOTAL OF         14 INNER ITERATIONS.
    ------------------------------------------------

 NO OUTPUT CONTROL FOR STRESS PERIOD   11   TIME STEP   29
 
 SOLVING FOR HEAD 
                                                   Max.-Head-Change                         Max.-Flux-Residual
  Residual-Control   Outer-Iter.   Inner-Iter.     Column Row Layer    Maximum-Head-Change  Column Row Layer    Maximum-Flux-Residual          L2-NORM 
          0                 1           2             6   13     1       0.7135030665E-02       6   13    1         0.3788808629E+00      0.1381127626E+01
          0                 2           2            10   10     1       0.2146845852E-02      10   10    1         0.5575664614E-01      0.3430843311E+00
          0                 3           2            10   10     1       0.9648494826E-03      10   10    1         0.2505855002E-01      0.1303531329E+00
          0                 4           2            10   10     1       0.4336282646E-03      10   10    1         0.1126197420E-01      0.5679558444E-01
          0                 5           2            10   10     1       0.1948834258E-03      10   10    1         0.5061420522E-02      0.2533530992E-01
          0                 6           1            10   10     1       0.8758536331E-04      10   10    1         0.2274728769E-02      0.1134235790E-01
          0                 7           1            10   10     1       0.3936293520E-04      10   10    1         0.1022318278E-02      0.5080796307E-02
          0                 8           1            10   10     1       0.1769060646E-04      10   10    1         0.4594538938E-03      0.2276221824E-02
          0                 9           1            10   10     1       0.7950551605E-05      10   10    1         0.2064890630E-03      0.1019815483E-02

    ------------------------------------------------
       NWT REQUIRED            9 OUTER ITERATIONS 
       AND A TOTAL OF         14 INNER ITERATIONS.
    ------------------------------------------------

 NO OUTPUT CONTROL FOR STRESS PERIOD   11   TIME STEP   30



 STREAM LISTING     PERIOD     11   STEP       30

 LAYER ROW COL. STREAM  RCH.  FLOW INTO     FLOW TO   FLOW OUT OF   OVRLND.     DIRECT     STREAM       STREAM     STREAM     STREAM   STREAMBED  STREAMBED
                SEG.NO.  NO.  STRM. RCH.    AQUIFER    STRM. RCH.    RUNOFF     PRECIP       ET          HEAD       DEPTH      WIDTH   CONDCTNC.   GRADIENT

   1    1    1     1     1    4.3470E+00  9.1790E-02   4.2552E+00  0.000E+00  0.000E+00  0.000E+00  1.09376E+03  7.122E-01  5.495E+00  2.473E-02  1.237E+00
   1    2    2     1     2    4.2552E+00  1.4068E-01   4.1146E+00  0.000E+00  0.000E+00  0.000E+00  1.08877E+03  7.076E-01  5.420E+00  3.794E-02  1.236E+00
   1    3    3     1     3    4.1146E+00  1.1854E-01   3.9960E+00  0.000E+00  0.000E+00  0.000E+00  1.08312E+03  7.023E-01  5.336E+00  3.202E-02  1.234E+00
   1    3    4     1     4    3.9960E+00  1.0820E-01   3.8878E+00  0.000E+00  0.000E+00  0.000E+00  1.07810E+03  6.964E-01  5.274E+00  2.927E-02  1.232E+00
   1    4    5     2     1    1.8878E+00  2.5317E-01   1.6347E+00  0.000E+00  0.000E+00  0.000E+00  1.07218E+03  2.458E-01  1.200E+01  7.800E-02  1.082E+00
   1    5    6     2     2    1.6347E+00  1.9360E-01   1.4411E+00  0.000E+00  0.000E+00  0.000E+00  1.06674E+03  2.266E-01  1.200E+01  6.000E-02  1.076E+00
   1    6    6     2     3    1.4411E+00  1.9255E-01   1.2485E+00  0.000E+00  0.000E+00  0.000E+00  1.06200E+03  2.091E-01  1.200E+01  6.000E-02  1.070E+00
   1    7    6     2     4    1.2485E+00  1.9144E-01   1.0571E+00  0.000E+00  0.000E+00  0.000E+00  1.05727E+03  1.906E-01  1.200E+01  6.000E-02  1.064E+00
   1    8    6     2     5    1.0571E+00  1.9026E-01   8.6681E-01  0.000E+00  0.000E+00  0.000E+00  1.05253E+03  1.710E-01  1.200E+01  6.000E-02  1.057E+00
   1    3    5     3     1    2.0000E+00  2.8252E-01   1.7175E+00  0.000E+00  0.000E+00  0.000E+00  1.07555E+03  1.909E+00  9.636E+00  7.227E-02  1.955E+00
   1    3    6     3     2    1.7175E+00  2.4905E-01   1.4684E+00  0.000E+00  0.000E+00  0.000E+00  1.07264E+03  1.727E+00  8.909E+00  6.682E-02  1.864E+00
   1    3    7     3     3    1.4684E+00  1.9718E-01   1.2712E+00  0.000E+00  0.000E+00  0.000E+00  1.06987E+03  1.555E+00  8.218E+00  5.547E-02  1.777E+00
   1    4    8     3     4    1.2712E+00  2.2567E-01   1.0456E+00  0.000E+00  0.000E+00  0.000E+00  1.06682E+03  1.364E+00  7.455E+00  6.709E-02  1.682E+00
   1    5    8     3     5    1.0456E+00  1.5790E-01   8.8768E-01  0.000E+00  0.000E+00  0.000E+00  1.06362E+03  1.164E+00  6.655E+00  4.991E-02  1.582E+00
   1    6    8     3     6    8.8768E-01  5.5980E-02   8.3170E-01  0.000E+00  0.000E+00  0.000E+00  1.06158E+03  1.036E+00  6.145E+00  1.844E-02  1.518E+00
   1    5   10     4     1    1.0000E+01  9.0919E-02   9.9091E+00  0.000E+00  0.000E+00  0.000E+00  1.07836E+03  6.368E-01  1.000E+01  2.500E-02  1.212E+00
   1    5    9     4     2    9.9091E+00  1.8158E-01   9.7275E+00  0.000E+00  0.000E+00  0.000E+00  1.07154E+03  6.315E-01  1.000E+01  5.000E-02  1.211E+00
   1    6    8     4     3    9.7275E+00  1.2689E-01   9.6006E+00  0.000E+00  0.000E+00  0.000E+00  1.06381E+03  6.256E-01  1.000E+01  3.500E-02  1.209E+00
   1    6    8     5     1    1.0432E+01  2.2686E-01   1.0205E+01  0.000E+00  0.000E+00  0.000E+00  1.05868E+03  6.790E-01  1.542E+01  6.166E-02  1.226E+00
   1    7    7     5     2    1.0205E+01  2.7894E-01   9.9265E+00  0.000E+00  0.000E+00  0.000E+00  1.05417E+03  6.732E-01  1.519E+01  7.594E-02  1.224E+00
   1    8    7     5     3    9.9265E+00  1.9221E-01   9.7343E+00  0.000E+00  0.000E+00  0.000E+00  1.04992E+03  6.676E-01  1.497E+01  5.241E-02  1.223E+00
   1    8    6     5     4    9.7343E+00  1.3577E-01   9.5985E+00  0.000E+00  0.000E+00  0.000E+00  1.04691E+03  6.637E-01  1.482E+01  3.706E-02  1.221E+00
   1    9    6     6     1    1.0465E+01  2.2317E-01   1.0242E+01  0.000E+00  0.000E+00  0.000E+00  1.04345E+03  7.195E-01  1.200E+01  6.000E-02  1.240E+00
   1   10    7     6     2    1.0242E+01  2.2261E-01   1.0020E+01  0.000E+00  0.000E+00  0.000E+00  1.03889E+03  7.102E-01  1.200E+01  6.000E-02  1.237E+00
   1   11    7     6     3    1.0020E+01  2.2205E-01   9.7975E+00  0.000E+00  0.000E+00  0.000E+00  1.03434E+03  7.008E-01  1.200E+01  6.000E-02  1.234E+00
   1   12    7     6     4    9.7975E+00  2.2148E-01   9.5760E+00  0.000E+00  0.000E+00  0.000E+00  1.02978E+03  6.913E-01  1.200E+01  6.000E-02  1.230E+00
   1   13    7     6     5    9.5760E+00 -1.5564E-01   9.7317E+00  0.000E+00  0.000E+00  0.000E+00  1.02660E+03  6.899E-01  1.200E+01  2.400E-01 -2.162E-01
   1   14    9     7     1    1.5000E+02  1.1548E+00   1.4885E+02  0.000E+00  0.000E+00  0.000E+00  1.03987E+03  2.288E+00  5.530E+01  5.593E-01  6.882E-01
   1   13    8     7     2    1.4885E+02  1.6580E+00   1.4719E+02  0.000E+00  0.000E+00  0.000E+00  1.03478E+03  2.281E+00  5.526E+01  6.149E-01  8.988E-01
   1   13    7     7     3    1.4719E+02  1.3654E+00   1.4582E+02  0.000E+00  0.000E+00  0.000E+00  1.02969E+03  2.273E+00  5.523E+01  5.586E-01  8.148E-01
   1   13    6     8     1    1.5555E+02  7.6028E-01   1.5479E+02  0.000E+00  0.000E+00  0.000E+00  1.02473E+03  2.853E+00  4.137E+01  4.215E-01  6.012E-01
   1   13    5     8     2    1.5479E+02  2.2272E-02   1.5477E+02  0.000E+00  0.000E+00  0.000E+00  1.01848E+03  2.850E+00  4.133E+01  4.211E-01  1.763E-02
   1   13    4     8     3    1.5477E+02 -3.1947E+00   1.5797E+02  0.000E+00  0.000E+00  0.000E+00  1.01224E+03  2.861E+00  4.149E+01  4.228E+00 -2.519E-01
   1   13    3     8     4    1.5797E+02 -4.1910E+00   1.6216E+02  0.000E+00  0.000E+00  0.000E+00  1.00601E+03  2.886E+00  4.185E+01  4.265E+00 -3.276E-01
   1   13    2     8     5    1.6216E+02 -2.7977E+00   1.6495E+02  0.000E+00  0.000E+00  0.000E+00  9.99785E+02  2.910E+00  4.219E+01  4.299E+00 -2.169E-01
   1   13    1     8     6    1.6495E+02 -1.9900E+00   1.6694E+02  0.000E+00  0.000E+00  0.000E+00  9.94801E+02  2.926E+00  4.242E+01  2.594E+00 -2.557E-01
   1    6    8     9     1    0.0000E+00  0.0000E+00   0.0000E+00  0.000E+00  0.000E+00  0.000E+00  1.07850E+03  0.000E+00  4.000E+00  0.000E+00  1.000E+00





UNSATURATED ZONE PACKAGE VOLUMETRIC BUDGET FOR  TIME STEP    30 STRESS PERIOD   11
  ------------------------------------------------------------------------------



     CUMULATIVE VOLUMES      L**3       RATES FOR THIS TIME STEP      L**3/T
     ------------------                 ------------------------

           IN:                                      IN:
           ---                                      ---
        INFILTRATION =    26615969.2213          INFILTRATION =       0.0000E+00

          OUT:                                     OUT:
          ----                                     ----
              UZF ET =   553804031.7130                UZF ET =           0.0250
        UZF RECHARGE =   656049449.6812          UZF RECHARGE =          22.1452

            IN - OUT = -1183237512.1729              IN - OUT =         -22.1702

          STORAGE:                                 STORAGE:
          --------                                 --------
      STORAGE CHANGE = -1183212042.9432        STORAGE CHANGE =         -22.1702

 PERCENT DISCREPANCY IS DIFFERENCE BETWEEN IN-OUT MINUS CHANGE IN STORAGE
 DIVIDED BY THE AVERAGE OF IN AND OUT TIMES 100

 PERCENT DISCREPANCY =          -0.00     PERCENT DISCREPANCY =           0.00






1
  VOLUMETRIC BUDGET FOR ENTIRE MODEL AT END OF TIME STEP   30, STRESS PERIOD  11
  ------------------------------------------------------------------------------

     CUMULATIVE VOLUMES      L**3       RATES FOR THIS TIME STEP      L**3/T
     ------------------                 ------------------------

           IN:                                      IN:
           ---                                      ---
             STORAGE     =    31639184.0000               STORAGE     =       2.6015E-02
       CONSTANT HEAD     =           0.0000         CONSTANT HEAD     =           0.0000
               WELLS     =           0.0000                 WELLS     =           0.0000
     HEAD DEP BOUNDS     =     7288705.0000       HEAD DEP BOUNDS     =           0.2734
      STREAM LEAKAGE     =   307565728.0000        STREAM LEAKAGE     =           9.7318
        UZF RECHARGE     =   656049728.0000          UZF RECHARGE     =          22.1452
               GW ET     =           0.0000                 GW ET     =           0.0000
     SURFACE LEAKAGE     =           0.0000       SURFACE LEAKAGE     =           0.0000
    SUPPLEMENTARY WELLS  =           0.0000      SUPPLEMENTARY WELLS  =           0.0000

                TOTAL IN =  1002543360.0000                  TOTAL IN =          32.1764

          OUT:                                     OUT:
          ----                                     ----
             STORAGE     =   648100480.0000               STORAGE     =          19.3816
       CONSTANT HEAD     =           0.0000         CONSTANT HEAD     =           0.0000
               WELLS     =           0.0000                 WELLS     =           0.0000
     HEAD DEP BOUNDS     =     7581659.0000       HEAD DEP BOUNDS     =           0.2876
      STREAM LEAKAGE     =   263030688.0000        STREAM LEAKAGE     =          12.3290
        UZF RECHARGE     =           0.0000          UZF RECHARGE     =           0.0000
               GW ET     =    83686840.0000                 GW ET     =           0.1750
     SURFACE LEAKAGE     =           0.0000       SURFACE LEAKAGE     =           0.0000
    SUPPLEMENTARY WELLS  =       36404.7930      SUPPLEMENTARY WELLS  =           0.0000

               TOTAL OUT =  1002436096.0000                 TOTAL OUT =          32.1732

                IN - OUT =      107264.0000                  IN - OUT =       3.2234E-03

     PERCENT DISCREPANCY =           0.01         PERCENT DISCREPANCY =           0.01






         TIME SUMMARY AT END OF TIME STEP   30 IN STRESS PERIOD   11
                    SECONDS     MINUTES      HOURS       DAYS        YEARS
                    -----------------------------------------------------------
   TIME STEP LENGTH  87600.      1460.0      24.333      1.0139     2.77588E-03
 STRESS PERIOD TIME 2.62800E+06  43800.      730.00      30.417     8.32763E-02
         TOTAL TIME 2.63664E+07 4.39440E+05  7324.0      305.17     0.83550    
1
1
                            STRESS PERIOD NO.   12, LENGTH =   2628000.    
                            -----------------------------------------------

                              NUMBER OF TIME STEPS =    30

                               MULTIPLIER FOR DELT =     1.000

                            INITIAL TIME STEP SIZE =   87600.00    

 WELL NO.  LAYER   ROW   COL   STRESS RATE         
 --------------------------------------------------
      1      1      6      4       0.000    
      2      1      6      7       0.000    
      3      1      7      4       0.000    
      4      1      7      5       0.000    
      5      1      8      4       0.000    
      6      1      8      5       0.000    
      7      1      9      4       0.000    
      8      1      9      5       0.000    
      9      1     10      4       0.000    
     10      1     10      5       0.000    

     10 WELLS

 REUSING NON-PARAMETER GHB CELLS FROM LAST STRESS PERIOD

      2 GHB CELLS

 REUSING STREAM SEGMENT DATA FROM LAST STRESS PERIOD



            AREAL INFILTRATION RATE
 READING ON UNIT   19 WITH FORMAT: (10F4.0)            

            1           2           3           4           5           6           7           8           9          10
 ........................................................................................................................
   1    0.000       0.000       0.000       0.000       0.000       0.000       0.000       0.000       0.000       0.000    
   2    0.000       0.000       0.000       0.000       0.000       0.000       0.000       0.000       0.000       0.000    
   3    0.000       0.000       0.000       0.000       0.000       0.000       0.000       0.000       0.000       0.000    
   4    0.000       0.000       0.000       0.000       0.000       0.000       0.000       0.000       0.000       0.000    
   5    0.000       0.000       0.000       0.000       0.000       0.000       0.000       0.000       0.000       0.000    
   6    0.000       0.000       0.000       0.000       0.000       0.000       0.000       0.000       0.000       0.000    
   7    0.000       0.000       0.000       0.000       0.000       0.000       0.000       0.000       0.000       0.000    
   8    0.000       0.000       0.000       0.000       0.000       0.000       0.000       0.000       0.000       0.000    
   9    0.000       0.000       0.000       0.000       0.000       0.000       0.000       0.000       0.000       0.000    
  10    0.000       0.000       0.000       0.000       0.000       0.000       0.000       0.000       0.000       0.000    
  11    0.000       0.000       0.000       0.000       0.000       0.000       0.000       0.000       0.000       0.000    
  12    0.000       0.000       0.000       0.000       0.000       0.000       0.000       0.000       0.000       0.000    
  13    0.000       0.000       0.000       0.000       0.000       0.000       0.000       0.000       0.000       0.000    
  14    0.000       0.000       0.000       0.000       0.000       0.000       0.000       0.000       0.000       0.000    
  15    0.000       0.000       0.000       0.000       0.000       0.000       0.000       0.000       0.000       0.000    

                  ET RATE =  1.000000E-10

 USING ET EXTINCTION DEPTH FROM PREVIOUS STRESS PERIOD. CURRENT PERIOD IS:      12

 USING EXTINCTION WATER CONTENT FROM PREVIOUS STRESS PERIOD. CURRENT PERIOD IS:      12

 PROCESSING AGO STRESS PERIOD DATA

 READING AGO STRESS PERIOD DATA

 READING IRRIGATION STREAM

 READING IRRIGATION WELL

 READING SUPPLEMENTAL WEL

 END PROCESSING AGO STRESS PERIOD DATA OPTIONS
 
 SOLVING FOR HEAD 
                                                   Max.-Head-Change                         Max.-Flux-Residual
  Residual-Control   Outer-Iter.   Inner-Iter.     Column Row Layer    Maximum-Head-Change  Column Row Layer    Maximum-Flux-Residual          L2-NORM 
          0                 1           2             6   13     1       0.7352381880E-02       6   13    1         0.3904246457E+00      0.1383368118E+01
          0                 2           2            10   10     1       0.2145873986E-02      10   10    1         0.5573148241E-01      0.3423762762E+00
          0                 3           2            10   10     1       0.9644110720E-03      10   10    1         0.2504719843E-01      0.1301413169E+00
          0                 4           2            10   10     1       0.4334305010E-03      10   10    1         0.1125685350E-01      0.5671896100E-01
          0                 5           2            10   10     1       0.1947942177E-03      10   10    1         0.5059110620E-02      0.2530256375E-01
          0                 6           1            10   10     1       0.8754512394E-04      10   10    1         0.2273686817E-02      0.1132785314E-01
          0                 7           1            10   10     1       0.3934478489E-04      10   10    1         0.1021848285E-02      0.5074333140E-02
          0                 8           1            10   10     1       0.1768241932E-04      10   10    1         0.4592418953E-03      0.2273338191E-02
          0                 9           1            10   10     1       0.7946859216E-05      10   10    1         0.2063934416E-03      0.1018528505E-02

    ------------------------------------------------
       NWT REQUIRED            9 OUTER ITERATIONS 
       AND A TOTAL OF         14 INNER ITERATIONS.
    ------------------------------------------------

 NO OUTPUT CONTROL FOR STRESS PERIOD   12   TIME STEP    1
 
 SOLVING FOR HEAD 
                                                   Max.-Head-Change                         Max.-Flux-Residual
  Residual-Control   Outer-Iter.   Inner-Iter.     Column Row Layer    Maximum-Head-Change  Column Row Layer    Maximum-Flux-Residual          L2-NORM 
          0                 1           2             6   13     1       0.7209999445E-02       6   13    1         0.3828303415E+00      0.1377542085E+01
          0                 2           2            10   10     1       0.2144898794E-02      10   10    1         0.5570622967E-01      0.3417833797E+00
          0                 3           2            10   10     1       0.9639712227E-03      10   10    1         0.2503580830E-01      0.1299797555E+00
          0                 4           2            10   10     1       0.4332321157E-03      10   10    1         0.1125171613E-01      0.5664816596E-01
          0                 5           2            10   10     1       0.1947047420E-03      10   10    1         0.5056793521E-02      0.2527092751E-01
          0                 6           1            10   10     1       0.8750476928E-04      10   10    1         0.2272641759E-02      0.1131372760E-01
          0                 7           1            10   10     1       0.3932658431E-04      10   10    1         0.1021376950E-02      0.5068026406E-02
          0                 8           1            10   10     1       0.1767421143E-04      10   10    1         0.4590293269E-03      0.2270522577E-02
          0                 9           1            10   10     1       0.7943157322E-05      10   10    1         0.2062975733E-03      0.1017271362E-02

    ------------------------------------------------
       NWT REQUIRED            9 OUTER ITERATIONS 
       AND A TOTAL OF         14 INNER ITERATIONS.
    ------------------------------------------------

 NO OUTPUT CONTROL FOR STRESS PERIOD   12   TIME STEP    2
 
 SOLVING FOR HEAD 
                                                   Max.-Head-Change                         Max.-Flux-Residual
  Residual-Control   Outer-Iter.   Inner-Iter.     Column Row Layer    Maximum-Head-Change  Column Row Layer    Maximum-Flux-Residual          L2-NORM 
          0                 1           2             6   13     1       0.7071255494E-02       6   13    1         0.3754290700E+00      0.1372126526E+01
          0                 2           2            10   10     1       0.2143920095E-02      10   10    1         0.5568088776E-01      0.3412630839E+00
          0                 3           2            10   10     1       0.9635297572E-03      10   10    1         0.2502437703E-01      0.1298189995E+00
          0                 4           2            10   10     1       0.4330329865E-03      10   10    1         0.1124655980E-01      0.5657743202E-01
          0                 5           2            10   10     1       0.1946149234E-03      10   10    1         0.5054467688E-02      0.2523933925E-01
          0                 6           1            10   10     1       0.8746425679E-04      10   10    1         0.2271592682E-02      0.1129962791E-01
          0                 7           1            10   10     1       0.3930831195E-04      10   10    1         0.1020903771E-02      0.5061732985E-02
          0                 8           1            10   10     1       0.1766596977E-04      10   10    1         0.4588159050E-03      0.2267713088E-02
          0                 9           1            10   10     1       0.7939440172E-05      10   10    1         0.2062013157E-03      0.1016016987E-02

    ------------------------------------------------
       NWT REQUIRED            9 OUTER ITERATIONS 
       AND A TOTAL OF         14 INNER ITERATIONS.
    ------------------------------------------------

 NO OUTPUT CONTROL FOR STRESS PERIOD   12   TIME STEP    3
 
 SOLVING FOR HEAD 
                                                   Max.-Head-Change                         Max.-Flux-Residual
  Residual-Control   Outer-Iter.   Inner-Iter.     Column Row Layer    Maximum-Head-Change  Column Row Layer    Maximum-Flux-Residual          L2-NORM 
          0                 1           2             6   13     1       0.6936247492E-02       6   13    1         0.3682271780E+00      0.1366877124E+01
          0                 2           2            10   10     1       0.2142937946E-02      10   10    1         0.5565545587E-01      0.3407624122E+00
          0                 3           2            10   10     1       0.9630867493E-03      10   10    1         0.2501290553E-01      0.1296648722E+00
          0                 4           2            10   10     1       0.4328331673E-03      10   10    1         0.1124138549E-01      0.5650909872E-01
          0                 5           2            10   10     1       0.1945247966E-03      10   10    1         0.5052133825E-02      0.2520869246E-01
          0                 6           1            10   10     1       0.8742360699E-04      10   10    1         0.2270540021E-02      0.1128590259E-01
          0                 7           1            10   10     1       0.3928997781E-04      10   10    1         0.1020428986E-02      0.5055589300E-02
          0                 8           1            10   10     1       0.1765770110E-04      10   10    1         0.4586017664E-03      0.2264964021E-02
          0                 9           1            10   10     1       0.7935710766E-05      10   10    1         0.2061047329E-03      0.1014786444E-02

    ------------------------------------------------
       NWT REQUIRED            9 OUTER ITERATIONS 
       AND A TOTAL OF         14 INNER ITERATIONS.
    ------------------------------------------------

 NO OUTPUT CONTROL FOR STRESS PERIOD   12   TIME STEP    4
 
 SOLVING FOR HEAD 
                                                   Max.-Head-Change                         Max.-Flux-Residual
  Residual-Control   Outer-Iter.   Inner-Iter.     Column Row Layer    Maximum-Head-Change  Column Row Layer    Maximum-Flux-Residual          L2-NORM 
          0                 1           2             6   13     1       0.6804637103E-02       6   13    1         0.3612068236E+00      0.1361839531E+01
          0                 2           2            10   10     1       0.2141952578E-02      10   10    1         0.5562993774E-01      0.3402777172E+00
          0                 3           2            10   10     1       0.9626423512E-03      10   10    1         0.2500139675E-01      0.1295115023E+00
          0                 4           2            10   10     1       0.4326327486E-03      10   10    1         0.1123619507E-01      0.5644082240E-01
          0                 5           2            10   10     1       0.1944344117E-03      10   10    1         0.5049793006E-02      0.2517807798E-01
          0                 6           1            10   10     1       0.8738284565E-04      10   10    1         0.2269484357E-02      0.1127220133E-01
          0                 7           1            10   10     1       0.3927159590E-04      10   10    1         0.1019952915E-02      0.5049460084E-02
          0                 8           1            10   10     1       0.1764941167E-04      10   10    1         0.4583870790E-03      0.2262221873E-02
          0                 9           1            10   10     1       0.7931972856E-05      10   10    1         0.2060079232E-03      0.1013560242E-02

    ------------------------------------------------
       NWT REQUIRED            9 OUTER ITERATIONS 
       AND A TOTAL OF         14 INNER ITERATIONS.
    ------------------------------------------------

 OUTPUT CONTROL FOR STRESS PERIOD   12   TIME STEP    5
    PRINT BUDGET
    SAVE BUDGET
 UBUDSV SAVING "         STORAGE" ON UNIT102 AT TIME STEP     5, STRESS PERIOD   12
 UBUDSV SAVING "   CONSTANT HEAD" ON UNIT102 AT TIME STEP     5, STRESS PERIOD   12
 UBUDSV SAVING "FLOW RIGHT FACE " ON UNIT102 AT TIME STEP     5, STRESS PERIOD   12
 UBUDSV SAVING "FLOW FRONT FACE " ON UNIT102 AT TIME STEP     5, STRESS PERIOD   12

  HEAD DEP BOUNDS   PERIOD   12   STEP     5
 BOUNDARY      1   LAYER   1   ROW    13   COL     1   RATE   -0.287860    
 BOUNDARY      2   LAYER   1   ROW    14   COL     9   RATE    0.273441    



 STREAM LISTING     PERIOD     12   STEP        5

 LAYER ROW COL. STREAM  RCH.  FLOW INTO     FLOW TO   FLOW OUT OF   OVRLND.     DIRECT     STREAM       STREAM     STREAM     STREAM   STREAMBED  STREAMBED
                SEG.NO.  NO.  STRM. RCH.    AQUIFER    STRM. RCH.    RUNOFF     PRECIP       ET          HEAD       DEPTH      WIDTH   CONDCTNC.   GRADIENT

   1    1    1     1     1    3.5000E+00  8.3255E-02   3.4167E+00  0.000E+00  0.000E+00  0.000E+00  1.09371E+03  6.654E-01  5.047E+00  2.271E-02  1.222E+00
   1    2    2     1     2    3.4167E+00  1.2792E-01   3.2888E+00  0.000E+00  0.000E+00  0.000E+00  1.08872E+03  6.583E-01  4.995E+00  3.497E-02  1.219E+00
   1    3    3     1     3    3.2888E+00  1.0809E-01   3.1807E+00  0.000E+00  0.000E+00  0.000E+00  1.08307E+03  6.502E-01  4.935E+00  2.961E-02  1.217E+00
   1    3    4     1     4    3.1807E+00  9.8702E-02   3.0820E+00  0.000E+00  0.000E+00  0.000E+00  1.07805E+03  6.428E-01  4.882E+00  2.709E-02  1.214E+00
   1    4    5     2     1    1.0820E+00  2.4731E-01   8.3473E-01  0.000E+00  0.000E+00  0.000E+00  1.07210E+03  1.706E-01  1.200E+01  7.800E-02  1.057E+00
   1    5    6     2     2    8.3473E-01  1.8877E-01   6.4596E-01  0.000E+00  0.000E+00  0.000E+00  1.06666E+03  1.462E-01  1.200E+01  6.000E-02  1.049E+00
   1    6    6     2     3    6.4596E-01  1.8736E-01   4.5860E-01  0.000E+00  0.000E+00  0.000E+00  1.06192E+03  1.226E-01  1.200E+01  6.000E-02  1.041E+00
   1    7    6     2     4    4.5860E-01  1.8574E-01   2.7286E-01  0.000E+00  0.000E+00  0.000E+00  1.05717E+03  9.573E-02  1.200E+01  6.000E-02  1.032E+00
   1    8    6     2     5    2.7286E-01  1.8377E-01   8.9092E-02  0.000E+00  0.000E+00  0.000E+00  1.05242E+03  6.276E-02  1.200E+01  6.000E-02  1.021E+00
   1    3    5     3     1    2.0000E+00  2.8252E-01   1.7175E+00  0.000E+00  0.000E+00  0.000E+00  1.07555E+03  1.909E+00  9.636E+00  7.227E-02  1.955E+00
   1    3    6     3     2    1.7175E+00  2.4905E-01   1.4684E+00  0.000E+00  0.000E+00  0.000E+00  1.07264E+03  1.727E+00  8.909E+00  6.682E-02  1.864E+00
   1    3    7     3     3    1.4684E+00  1.9718E-01   1.2712E+00  0.000E+00  0.000E+00  0.000E+00  1.06987E+03  1.555E+00  8.218E+00  5.547E-02  1.777E+00
   1    4    8     3     4    1.2712E+00  2.2567E-01   1.0456E+00  0.000E+00  0.000E+00  0.000E+00  1.06682E+03  1.364E+00  7.455E+00  6.709E-02  1.682E+00
   1    5    8     3     5    1.0456E+00  1.5790E-01   8.8768E-01  0.000E+00  0.000E+00  0.000E+00  1.06362E+03  1.164E+00  6.655E+00  4.991E-02  1.582E+00
   1    6    8     3     6    8.8768E-01  5.5980E-02   8.3170E-01  0.000E+00  0.000E+00  0.000E+00  1.06158E+03  1.036E+00  6.145E+00  1.844E-02  1.518E+00
   1    5   10     4     1    1.0000E+01  9.0919E-02   9.9091E+00  0.000E+00  0.000E+00  0.000E+00  1.07836E+03  6.368E-01  1.000E+01  2.500E-02  1.212E+00
   1    5    9     4     2    9.9091E+00  1.8158E-01   9.7275E+00  0.000E+00  0.000E+00  0.000E+00  1.07154E+03  6.315E-01  1.000E+01  5.000E-02  1.211E+00
   1    6    8     4     3    9.7275E+00  1.2689E-01   9.6006E+00  0.000E+00  0.000E+00  0.000E+00  1.06381E+03  6.256E-01  1.000E+01  3.500E-02  1.209E+00
   1    6    8     5     1    1.0432E+01  2.2686E-01   1.0205E+01  0.000E+00  0.000E+00  0.000E+00  1.05868E+03  6.790E-01  1.542E+01  6.166E-02  1.226E+00
   1    7    7     5     2    1.0205E+01  2.7894E-01   9.9265E+00  0.000E+00  0.000E+00  0.000E+00  1.05417E+03  6.732E-01  1.519E+01  7.594E-02  1.224E+00
   1    8    7     5     3    9.9265E+00  1.9221E-01   9.7343E+00  0.000E+00  0.000E+00  0.000E+00  1.04992E+03  6.676E-01  1.497E+01  5.241E-02  1.223E+00
   1    8    6     5     4    9.7343E+00  1.3577E-01   9.5985E+00  0.000E+00  0.000E+00  0.000E+00  1.04691E+03  6.637E-01  1.482E+01  3.706E-02  1.221E+00
   1    9    6     6     1    9.6876E+00  2.2120E-01   9.4664E+00  0.000E+00  0.000E+00  0.000E+00  1.04341E+03  6.866E-01  1.200E+01  6.000E-02  1.229E+00
   1   10    7     6     2    9.4664E+00  2.2062E-01   9.2458E+00  0.000E+00  0.000E+00  0.000E+00  1.03886E+03  6.771E-01  1.200E+01  6.000E-02  1.226E+00
   1   11    7     6     3    9.2458E+00  2.2005E-01   9.0258E+00  0.000E+00  0.000E+00  0.000E+00  1.03430E+03  6.674E-01  1.200E+01  6.000E-02  1.222E+00
   1   12    7     6     4    9.0258E+00  2.1947E-01   8.8063E+00  0.000E+00  0.000E+00  0.000E+00  1.02975E+03  6.578E-01  1.200E+01  6.000E-02  1.219E+00
   1   13    7     6     5    8.8063E+00 -1.6853E-01   8.9748E+00  0.000E+00  0.000E+00  0.000E+00  1.02657E+03  6.566E-01  1.200E+01  2.400E-01 -2.341E-01
   1   14    9     7     1    1.5000E+02  1.1548E+00   1.4885E+02  0.000E+00  0.000E+00  0.000E+00  1.03987E+03  2.288E+00  5.530E+01  5.593E-01  6.882E-01
   1   13    8     7     2    1.4885E+02  1.6539E+00   1.4719E+02  0.000E+00  0.000E+00  0.000E+00  1.03478E+03  2.281E+00  5.526E+01  6.149E-01  8.967E-01
   1   13    7     7     3    1.4719E+02  1.3540E+00   1.4584E+02  0.000E+00  0.000E+00  0.000E+00  1.02969E+03  2.273E+00  5.523E+01  5.586E-01  8.080E-01
   1   13    6     8     1    1.5481E+02  7.4325E-01   1.5407E+02  0.000E+00  0.000E+00  0.000E+00  1.02472E+03  2.848E+00  4.129E+01  4.208E-01  5.888E-01
   1   13    5     8     2    1.5407E+02  8.2720E-03   1.5406E+02  0.000E+00  0.000E+00  0.000E+00  1.01847E+03  2.845E+00  4.126E+01  4.204E-01  6.559E-03
   1   13    4     8     3    1.5406E+02 -3.2252E+00   1.5729E+02  0.000E+00  0.000E+00  0.000E+00  1.01223E+03  2.856E+00  4.142E+01  4.221E+00 -2.547E-01
   1   13    3     8     4    1.5729E+02 -4.2075E+00   1.6149E+02  0.000E+00  0.000E+00  0.000E+00  1.00601E+03  2.882E+00  4.178E+01  4.258E+00 -3.294E-01
   1   13    2     8     5    1.6149E+02 -2.8141E+00   1.6431E+02  0.000E+00  0.000E+00  0.000E+00  9.99780E+02  2.905E+00  4.213E+01  4.293E+00 -2.185E-01
   1   13    1     8     6    1.6431E+02 -2.0172E+00   1.6632E+02  0.000E+00  0.000E+00  0.000E+00  9.94796E+02  2.921E+00  4.236E+01  2.590E+00 -2.596E-01
   1    6    8     9     1    0.0000E+00  0.0000E+00   0.0000E+00  0.000E+00  0.000E+00  0.000E+00  1.07850E+03  0.000E+00  4.000E+00  0.000E+00  1.000E+00



 UBDSV3 SAVING "     NETRECHARGE" ON UNIT 100 AT TIME STEP     5, STRESS PERIOD  12
 UBDSV3 SAVING "    NETDISCHARGE" ON UNIT 101 AT TIME STEP     5, STRESS PERIOD  12
 UBDSV3 SAVING "           GW ET" ON UNIT  61 AT TIME STEP     5, STRESS PERIOD  12
 UBDSV3 SAVING "    UZF RECHARGE" ON UNIT  61 AT TIME STEP     5, STRESS PERIOD  12
 UBDSV3 SAVING " SURFACE LEAKAGE" ON UNIT  61 AT TIME STEP     5, STRESS PERIOD  12
 UBDSV3 SAVING "       HORT+DUNN" ON UNIT  61 AT TIME STEP     5, STRESS PERIOD  12
 UBDSV3 SAVING "  STORAGE CHANGE" ON UNIT  61 AT TIME STEP     5, STRESS PERIOD  12


UNSATURATED ZONE PACKAGE VOLUMETRIC BUDGET FOR  TIME STEP     5 STRESS PERIOD   12
  ------------------------------------------------------------------------------



     CUMULATIVE VOLUMES      L**3       RATES FOR THIS TIME STEP      L**3/T
     ------------------                 ------------------------

           IN:                                      IN:
           ---                                      ---
        INFILTRATION =    26615969.2213          INFILTRATION =       0.0000E+00

          OUT:                                     OUT:
          ----                                     ----
              UZF ET =   553804688.0064                UZF ET =           0.0025
        UZF RECHARGE =   665731737.9467          UZF RECHARGE =          22.0932

            IN - OUT = -1192920456.7319              IN - OUT =         -22.0957

          STORAGE:                                 STORAGE:
          --------                                 --------
      STORAGE CHANGE = -1192894987.5096        STORAGE CHANGE =         -22.0957

 PERCENT DISCREPANCY IS DIFFERENCE BETWEEN IN-OUT MINUS CHANGE IN STORAGE
 DIVIDED BY THE AVERAGE OF IN AND OUT TIMES 100

 PERCENT DISCREPANCY =          -0.00     PERCENT DISCREPANCY =           0.00






1
  VOLUMETRIC BUDGET FOR ENTIRE MODEL AT END OF TIME STEP    5, STRESS PERIOD  12
  ------------------------------------------------------------------------------

     CUMULATIVE VOLUMES      L**3       RATES FOR THIS TIME STEP      L**3/T
     ------------------                 ------------------------

           IN:                                      IN:
           ---                                      ---
             STORAGE     =    31647762.0000               STORAGE     =       2.1054E-02
       CONSTANT HEAD     =           0.0000         CONSTANT HEAD     =           0.0000
               WELLS     =           0.0000                 WELLS     =           0.0000
     HEAD DEP BOUNDS     =     7408472.5000       HEAD DEP BOUNDS     =           0.2734
      STREAM LEAKAGE     =   311781024.0000        STREAM LEAKAGE     =           9.6080
        UZF RECHARGE     =   665732032.0000          UZF RECHARGE     =          22.0932
               GW ET     =           0.0000                 GW ET     =           0.0000
     SURFACE LEAKAGE     =           0.0000       SURFACE LEAKAGE     =           0.0000
    SUPPLEMENTARY WELLS  =           0.0000      SUPPLEMENTARY WELLS  =           0.0000

                TOTAL IN =  1016569280.0000                  TOTAL IN =          31.9957

          OUT:                                     OUT:
          ----                                     ----
             STORAGE     =   656553024.0000               STORAGE     =          19.2546
       CONSTANT HEAD     =           0.0000         CONSTANT HEAD     =           0.0000
               WELLS     =           0.0000                 WELLS     =           0.0000
     HEAD DEP BOUNDS     =     7707695.0000       HEAD DEP BOUNDS     =           0.2879
      STREAM LEAKAGE     =   268469024.0000        STREAM LEAKAGE     =          12.4325
        UZF RECHARGE     =           0.0000          UZF RECHARGE     =           0.0000
               GW ET     =    83694520.0000                 GW ET     =       1.7500E-02
     SURFACE LEAKAGE     =           0.0000       SURFACE LEAKAGE     =           0.0000
    SUPPLEMENTARY WELLS  =       36404.7930      SUPPLEMENTARY WELLS  =           0.0000

               TOTAL OUT =  1016460672.0000                 TOTAL OUT =          31.9925

                IN - OUT =      108608.0000                  IN - OUT =       3.2082E-03

     PERCENT DISCREPANCY =           0.01         PERCENT DISCREPANCY =           0.01






         TIME SUMMARY AT END OF TIME STEP    5 IN STRESS PERIOD   12
                    SECONDS     MINUTES      HOURS       DAYS        YEARS
                    -----------------------------------------------------------
   TIME STEP LENGTH  87600.      1460.0      24.333      1.0139     2.77588E-03
 STRESS PERIOD TIME 4.38000E+05  7300.0      121.67      5.0694     1.38794E-02
         TOTAL TIME 2.68044E+07 4.46740E+05  7445.7      310.24     0.84938    
1
 
 SOLVING FOR HEAD 
                                                   Max.-Head-Change                         Max.-Flux-Residual
  Residual-Control   Outer-Iter.   Inner-Iter.     Column Row Layer    Maximum-Head-Change  Column Row Layer    Maximum-Flux-Residual          L2-NORM 
          0                 1           2             6   13     1       0.6676535045E-02       6   13    1         0.3543736419E+00      0.1357063909E+01
          0                 2           2            10   10     1       0.2140963811E-02      10   10    1         0.5560433322E-01      0.3398016592E+00
          0                 3           2            10   10     1       0.9621963842E-03      10   10    1         0.2498984807E-01      0.1293566627E+00
          0                 4           2            10   10     1       0.4324316070E-03      10   10    1         0.1123098626E-01      0.5637177646E-01
          0                 5           2            10   10     1       0.1943436937E-03      10   10    1         0.5047443713E-02      0.2514716301E-01
          0                 6           1            10   10     1       0.8734193123E-04      10   10    1         0.2268424794E-02      0.1125838674E-01
          0                 7           1            10   10     1       0.3925314371E-04      10   10    1         0.1019475047E-02      0.5043289029E-02
          0                 8           1            10   10     1       0.1764108972E-04      10   10    1         0.4581715593E-03      0.2259465432E-02
          0                 9           1            10   10     1       0.7928219940E-05      10   10    1         0.2059107261E-03      0.1012329355E-02

    ------------------------------------------------
       NWT REQUIRED            9 OUTER ITERATIONS 
       AND A TOTAL OF         14 INNER ITERATIONS.
    ------------------------------------------------

 NO OUTPUT CONTROL FOR STRESS PERIOD   12   TIME STEP    6
 
 SOLVING FOR HEAD 
                                                   Max.-Head-Change                         Max.-Flux-Residual
  Residual-Control   Outer-Iter.   Inner-Iter.     Column Row Layer    Maximum-Head-Change  Column Row Layer    Maximum-Flux-Residual          L2-NORM 
          0                 1           2             6   13     1       0.6551623993E-02       6   13    1         0.3477108103E+00      0.1352449225E+01
          0                 2           2            10   10     1       0.2139971703E-02      10   10    1         0.5557864152E-01      0.3393322988E+00
          0                 3           2            10   10     1       0.9617489250E-03      10   10    1         0.2497826045E-01      0.1292034922E+00
          0                 4           2            10   10     1       0.4322297990E-03      10   10    1         0.1122576005E-01      0.5630372125E-01
          0                 5           2            10   10     1       0.1942526783E-03      10   10    1         0.5045086656E-02      0.2511671784E-01
          0                 6           1            10   10     1       0.8730088451E-04      10   10    1         0.2267361766E-02      0.1124478446E-01
          0                 7           1            10   10     1       0.3923463199E-04      10   10    1         0.1018995626E-02      0.5037213013E-02
          0                 8           1            10   10     1       0.1763274177E-04      10   10    1         0.4579553523E-03      0.2256750883E-02
          0                 9           1            10   10     1       0.7924455269E-05      10   10    1         0.2058132213E-03      0.1011115453E-02

    ------------------------------------------------
       NWT REQUIRED            9 OUTER ITERATIONS 
       AND A TOTAL OF         14 INNER ITERATIONS.
    ------------------------------------------------

 NO OUTPUT CONTROL FOR STRESS PERIOD   12   TIME STEP    7
 
 SOLVING FOR HEAD 
                                                   Max.-Head-Change                         Max.-Flux-Residual
  Residual-Control   Outer-Iter.   Inner-Iter.     Column Row Layer    Maximum-Head-Change  Column Row Layer    Maximum-Flux-Residual          L2-NORM 
          0                 1           2             6   13     1       0.6430025046E-02       6   13    1         0.3412247352E+00      0.1347990344E+01
          0                 2           2            10   10     1       0.2138976097E-02      10   10    1         0.5555286083E-01      0.3388633039E+00
          0                 3           2            10   10     1       0.9612998557E-03      10   10    1         0.2496663181E-01      0.1290500928E+00
          0                 4           2            10   10     1       0.4320272493E-03      10   10    1         0.1122051495E-01      0.5623563030E-01
          0                 5           2            10   10     1       0.1941613222E-03      10   10    1         0.5042720910E-02      0.2508625645E-01
          0                 6           1            10   10     1       0.8725968046E-04      10   10    1         0.2266294742E-02      0.1123117338E-01
          0                 7           1            10   10     1       0.3921604874E-04      10   10    1         0.1018514384E-02      0.5031131784E-02
          0                 8           1            10   10     1       0.1762436029E-04      10   10    1         0.4577383094E-03      0.2254033347E-02
          0                 9           1            10   10     1       0.7920675841E-05      10   10    1         0.2057153422E-03      0.1009901258E-02

    ------------------------------------------------
       NWT REQUIRED            9 OUTER ITERATIONS 
       AND A TOTAL OF         14 INNER ITERATIONS.
    ------------------------------------------------

 NO OUTPUT CONTROL FOR STRESS PERIOD   12   TIME STEP    8
 
 SOLVING FOR HEAD 
                                                   Max.-Head-Change                         Max.-Flux-Residual
  Residual-Control   Outer-Iter.   Inner-Iter.     Column Row Layer    Maximum-Head-Change  Column Row Layer    Maximum-Flux-Residual          L2-NORM 
          0                 1           2             6   13     1       0.6311525408E-02       6   13    1         0.3349045343E+00      0.1343807393E+01
          0                 2           2            10   10     1       0.2137928643E-02      10   10    1         0.5552572979E-01      0.3387745626E+00
          0                 3           2            10   10     1       0.9608275640E-03      10   10    1         0.2495439838E-01      0.1289110581E+00
          0                 4           2            10   10     1       0.4318142990E-03      10   10    1         0.1121499897E-01      0.5617044158E-01
          0                 5           2            10   10     1       0.1940653071E-03      10   10    1         0.5040233830E-02      0.2505687092E-01
          0                 6           1            10   10     1       0.8721639024E-04      10   10    1         0.2265173375E-02      0.1121798013E-01
          0                 7           1            10   10     1       0.3919653082E-04      10   10    1         0.1018008792E-02      0.5025214199E-02
          0                 8           1            10   10     1       0.1761556064E-04      10   10    1         0.4575103521E-03      0.2251380413E-02
          0                 9           1            10   10     1       0.7916707829E-05      10   10    1         0.2056125602E-03      0.1008712369E-02

    ------------------------------------------------
       NWT REQUIRED            9 OUTER ITERATIONS 
       AND A TOTAL OF         14 INNER ITERATIONS.
    ------------------------------------------------

 NO OUTPUT CONTROL FOR STRESS PERIOD   12   TIME STEP    9
 
 SOLVING FOR HEAD 
                                                   Max.-Head-Change                         Max.-Flux-Residual
  Residual-Control   Outer-Iter.   Inner-Iter.     Column Row Layer    Maximum-Head-Change  Column Row Layer    Maximum-Flux-Residual          L2-NORM 
          0                 1           2             6   13     1       0.6191843804E-02       6   13    1         0.3287255074E+00      0.1339427055E+01
          0                 2           2            10   10     1       0.2136926758E-02      10   10    1         0.5549978289E-01      0.3379241045E+00
          0                 3           2            10   10     1       0.9603757379E-03      10   10    1         0.2494269676E-01      0.1287535751E+00
          0                 4           2            10   10     1       0.4316105410E-03      10   10    1         0.1120972185E-01      0.5610365998E-01
          0                 5           2            10   10     1       0.1939734213E-03      10   10    1         0.5037854035E-02      0.2502699156E-01
          0                 6           1            10   10     1       0.8717495410E-04      10   10    1         0.2264100187E-02      0.1120461018E-01
          0                 7           1            10   10     1       0.3917784553E-04      10   10    1         0.1017524841E-02      0.5019234144E-02
          0                 8           1            10   10     1       0.1760713490E-04      10   10    1         0.4572921225E-03      0.2248705908E-02
          0                 9           1            10   10     1       0.7912908892E-05      10   10    1         0.2055141564E-03      0.1007517380E-02

    ------------------------------------------------
       NWT REQUIRED            9 OUTER ITERATIONS 
       AND A TOTAL OF         14 INNER ITERATIONS.
    ------------------------------------------------

 OUTPUT CONTROL FOR STRESS PERIOD   12   TIME STEP   10
    PRINT BUDGET
    SAVE BUDGET
 UBUDSV SAVING "         STORAGE" ON UNIT102 AT TIME STEP    10, STRESS PERIOD   12
 UBUDSV SAVING "   CONSTANT HEAD" ON UNIT102 AT TIME STEP    10, STRESS PERIOD   12
 UBUDSV SAVING "FLOW RIGHT FACE " ON UNIT102 AT TIME STEP    10, STRESS PERIOD   12
 UBUDSV SAVING "FLOW FRONT FACE " ON UNIT102 AT TIME STEP    10, STRESS PERIOD   12

  HEAD DEP BOUNDS   PERIOD   12   STEP    10
 BOUNDARY      1   LAYER   1   ROW    13   COL     1   RATE   -0.288083    
 BOUNDARY      2   LAYER   1   ROW    14   COL     9   RATE    0.273442    



 STREAM LISTING     PERIOD     12   STEP       10

 LAYER ROW COL. STREAM  RCH.  FLOW INTO     FLOW TO   FLOW OUT OF   OVRLND.     DIRECT     STREAM       STREAM     STREAM     STREAM   STREAMBED  STREAMBED
                SEG.NO.  NO.  STRM. RCH.    AQUIFER    STRM. RCH.    RUNOFF     PRECIP       ET          HEAD       DEPTH      WIDTH   CONDCTNC.   GRADIENT

   1    1    1     1     1    3.5000E+00  8.3255E-02   3.4167E+00  0.000E+00  0.000E+00  0.000E+00  1.09371E+03  6.654E-01  5.047E+00  2.271E-02  1.222E+00
   1    2    2     1     2    3.4167E+00  1.2792E-01   3.2888E+00  0.000E+00  0.000E+00  0.000E+00  1.08872E+03  6.583E-01  4.995E+00  3.497E-02  1.219E+00
   1    3    3     1     3    3.2888E+00  1.0809E-01   3.1807E+00  0.000E+00  0.000E+00  0.000E+00  1.08307E+03  6.502E-01  4.935E+00  2.961E-02  1.217E+00
   1    3    4     1     4    3.1807E+00  9.8702E-02   3.0820E+00  0.000E+00  0.000E+00  0.000E+00  1.07805E+03  6.428E-01  4.882E+00  2.709E-02  1.214E+00
   1    4    5     2     1    1.0820E+00  2.4731E-01   8.3473E-01  0.000E+00  0.000E+00  0.000E+00  1.07210E+03  1.706E-01  1.200E+01  7.800E-02  1.057E+00
   1    5    6     2     2    8.3473E-01  1.8877E-01   6.4596E-01  0.000E+00  0.000E+00  0.000E+00  1.06666E+03  1.462E-01  1.200E+01  6.000E-02  1.049E+00
   1    6    6     2     3    6.4596E-01  1.8736E-01   4.5860E-01  0.000E+00  0.000E+00  0.000E+00  1.06192E+03  1.226E-01  1.200E+01  6.000E-02  1.041E+00
   1    7    6     2     4    4.5860E-01  1.8574E-01   2.7286E-01  0.000E+00  0.000E+00  0.000E+00  1.05717E+03  9.573E-02  1.200E+01  6.000E-02  1.032E+00
   1    8    6     2     5    2.7286E-01  1.8377E-01   8.9092E-02  0.000E+00  0.000E+00  0.000E+00  1.05242E+03  6.276E-02  1.200E+01  6.000E-02  1.021E+00
   1    3    5     3     1    2.0000E+00  2.8252E-01   1.7175E+00  0.000E+00  0.000E+00  0.000E+00  1.07555E+03  1.909E+00  9.636E+00  7.227E-02  1.955E+00
   1    3    6     3     2    1.7175E+00  2.4905E-01   1.4684E+00  0.000E+00  0.000E+00  0.000E+00  1.07264E+03  1.727E+00  8.909E+00  6.682E-02  1.864E+00
   1    3    7     3     3    1.4684E+00  1.9718E-01   1.2712E+00  0.000E+00  0.000E+00  0.000E+00  1.06987E+03  1.555E+00  8.218E+00  5.547E-02  1.777E+00
   1    4    8     3     4    1.2712E+00  2.2567E-01   1.0456E+00  0.000E+00  0.000E+00  0.000E+00  1.06682E+03  1.364E+00  7.455E+00  6.709E-02  1.682E+00
   1    5    8     3     5    1.0456E+00  1.5790E-01   8.8768E-01  0.000E+00  0.000E+00  0.000E+00  1.06362E+03  1.164E+00  6.655E+00  4.991E-02  1.582E+00
   1    6    8     3     6    8.8768E-01  5.5980E-02   8.3170E-01  0.000E+00  0.000E+00  0.000E+00  1.06158E+03  1.036E+00  6.145E+00  1.844E-02  1.518E+00
   1    5   10     4     1    1.0000E+01  9.0919E-02   9.9091E+00  0.000E+00  0.000E+00  0.000E+00  1.07836E+03  6.368E-01  1.000E+01  2.500E-02  1.212E+00
   1    5    9     4     2    9.9091E+00  1.8158E-01   9.7275E+00  0.000E+00  0.000E+00  0.000E+00  1.07154E+03  6.315E-01  1.000E+01  5.000E-02  1.211E+00
   1    6    8     4     3    9.7275E+00  1.2689E-01   9.6006E+00  0.000E+00  0.000E+00  0.000E+00  1.06381E+03  6.256E-01  1.000E+01  3.500E-02  1.209E+00
   1    6    8     5     1    1.0432E+01  2.2686E-01   1.0205E+01  0.000E+00  0.000E+00  0.000E+00  1.05868E+03  6.790E-01  1.542E+01  6.166E-02  1.226E+00
   1    7    7     5     2    1.0205E+01  2.7894E-01   9.9265E+00  0.000E+00  0.000E+00  0.000E+00  1.05417E+03  6.732E-01  1.519E+01  7.594E-02  1.224E+00
   1    8    7     5     3    9.9265E+00  1.9221E-01   9.7343E+00  0.000E+00  0.000E+00  0.000E+00  1.04992E+03  6.676E-01  1.497E+01  5.241E-02  1.223E+00
   1    8    6     5     4    9.7343E+00  1.3577E-01   9.5985E+00  0.000E+00  0.000E+00  0.000E+00  1.04691E+03  6.637E-01  1.482E+01  3.706E-02  1.221E+00
   1    9    6     6     1    9.6876E+00  2.2120E-01   9.4664E+00  0.000E+00  0.000E+00  0.000E+00  1.04341E+03  6.866E-01  1.200E+01  6.000E-02  1.229E+00
   1   10    7     6     2    9.4664E+00  2.2062E-01   9.2458E+00  0.000E+00  0.000E+00  0.000E+00  1.03886E+03  6.771E-01  1.200E+01  6.000E-02  1.226E+00
   1   11    7     6     3    9.2458E+00  2.2005E-01   9.0258E+00  0.000E+00  0.000E+00  0.000E+00  1.03430E+03  6.674E-01  1.200E+01  6.000E-02  1.222E+00
   1   12    7     6     4    9.0258E+00  2.1947E-01   8.8063E+00  0.000E+00  0.000E+00  0.000E+00  1.02975E+03  6.578E-01  1.200E+01  6.000E-02  1.219E+00
   1   13    7     6     5    8.8063E+00 -1.7296E-01   8.9793E+00  0.000E+00  0.000E+00  0.000E+00  1.02657E+03  6.567E-01  1.200E+01  2.400E-01 -2.402E-01
   1   14    9     7     1    1.5000E+02  1.1548E+00   1.4885E+02  0.000E+00  0.000E+00  0.000E+00  1.03987E+03  2.288E+00  5.530E+01  5.593E-01  6.882E-01
   1   13    8     7     2    1.4885E+02  1.6498E+00   1.4720E+02  0.000E+00  0.000E+00  0.000E+00  1.03478E+03  2.281E+00  5.526E+01  6.149E-01  8.944E-01
   1   13    7     7     3    1.4720E+02  1.3437E+00   1.4585E+02  0.000E+00  0.000E+00  0.000E+00  1.02969E+03  2.273E+00  5.523E+01  5.586E-01  8.019E-01
   1   13    6     8     1    1.5483E+02  7.3103E-01   1.5410E+02  0.000E+00  0.000E+00  0.000E+00  1.02472E+03  2.848E+00  4.130E+01  4.208E-01  5.791E-01
   1   13    5     8     2    1.5410E+02 -2.0674E-02   1.5412E+02  0.000E+00  0.000E+00  0.000E+00  1.01847E+03  2.846E+00  4.126E+01  4.205E+00 -1.639E-03
   1   13    4     8     3    1.5412E+02 -3.2410E+00   1.5736E+02  0.000E+00  0.000E+00  0.000E+00  1.01223E+03  2.857E+00  4.142E+01  4.221E+00 -2.559E-01
   1   13    3     8     4    1.5736E+02 -4.2108E+00   1.6157E+02  0.000E+00  0.000E+00  0.000E+00  1.00601E+03  2.882E+00  4.179E+01  4.259E+00 -3.296E-01
   1   13    2     8     5    1.6157E+02 -2.8153E+00   1.6439E+02  0.000E+00  0.000E+00  0.000E+00  9.99781E+02  2.906E+00  4.214E+01  4.294E+00 -2.186E-01
   1   13    1     8     6    1.6439E+02 -2.0313E+00   1.6642E+02  0.000E+00  0.000E+00  0.000E+00  9.94797E+02  2.922E+00  4.237E+01  2.591E+00 -2.614E-01
   1    6    8     9     1    0.0000E+00  0.0000E+00   0.0000E+00  0.000E+00  0.000E+00  0.000E+00  1.07850E+03  0.000E+00  4.000E+00  0.000E+00  1.000E+00



 UBDSV3 SAVING "     NETRECHARGE" ON UNIT 100 AT TIME STEP    10, STRESS PERIOD  12
 UBDSV3 SAVING "    NETDISCHARGE" ON UNIT 101 AT TIME STEP    10, STRESS PERIOD  12
 UBDSV3 SAVING "           GW ET" ON UNIT  61 AT TIME STEP    10, STRESS PERIOD  12
 UBDSV3 SAVING "    UZF RECHARGE" ON UNIT  61 AT TIME STEP    10, STRESS PERIOD  12
 UBDSV3 SAVING " SURFACE LEAKAGE" ON UNIT  61 AT TIME STEP    10, STRESS PERIOD  12
 UBDSV3 SAVING "       HORT+DUNN" ON UNIT  61 AT TIME STEP    10, STRESS PERIOD  12
 UBDSV3 SAVING "  STORAGE CHANGE" ON UNIT  61 AT TIME STEP    10, STRESS PERIOD  12


UNSATURATED ZONE PACKAGE VOLUMETRIC BUDGET FOR  TIME STEP    10 STRESS PERIOD   12
  ------------------------------------------------------------------------------



     CUMULATIVE VOLUMES      L**3       RATES FOR THIS TIME STEP      L**3/T
     ------------------                 ------------------------

           IN:                                      IN:
           ---                                      ---
        INFILTRATION =    26615969.2213          INFILTRATION =       0.0000E+00

          OUT:                                     OUT:
          ----                                     ----
              UZF ET =   553805126.0064                UZF ET =       0.0000E+00
        UZF RECHARGE =   675398442.8914          UZF RECHARGE =          22.0527

            IN - OUT = -1202587599.6765              IN - OUT =         -22.0527

          STORAGE:                                 STORAGE:
          --------                                 --------
      STORAGE CHANGE = -1202562130.4632        STORAGE CHANGE =         -22.0527

 PERCENT DISCREPANCY IS DIFFERENCE BETWEEN IN-OUT MINUS CHANGE IN STORAGE
 DIVIDED BY THE AVERAGE OF IN AND OUT TIMES 100

 PERCENT DISCREPANCY =          -0.00     PERCENT DISCREPANCY =           0.00






1
  VOLUMETRIC BUDGET FOR ENTIRE MODEL AT END OF TIME STEP   10, STRESS PERIOD  12
  ------------------------------------------------------------------------------

     CUMULATIVE VOLUMES      L**3       RATES FOR THIS TIME STEP      L**3/T
     ------------------                 ------------------------

           IN:                                      IN:
           ---                                      ---
             STORAGE     =    31656548.0000               STORAGE     =       2.1325E-02
       CONSTANT HEAD     =           0.0000         CONSTANT HEAD     =           0.0000
               WELLS     =           0.0000                 WELLS     =           0.0000
     HEAD DEP BOUNDS     =     7528240.0000       HEAD DEP BOUNDS     =           0.2734
      STREAM LEAKAGE     =   315979648.0000        STREAM LEAKAGE     =           9.5731
        UZF RECHARGE     =   675398784.0000          UZF RECHARGE     =          22.0527
               GW ET     =           0.0000                 GW ET     =           0.0000
     SURFACE LEAKAGE     =           0.0000       SURFACE LEAKAGE     =           0.0000
    SUPPLEMENTARY WELLS  =           0.0000      SUPPLEMENTARY WELLS  =           0.0000

                TOTAL IN =  1030563200.0000                  TOTAL IN =          31.9206

          OUT:                                     OUT:
          ----                                     ----
             STORAGE     =   664953856.0000               STORAGE     =          19.1199
       CONSTANT HEAD     =           0.0000         CONSTANT HEAD     =           0.0000
               WELLS     =           0.0000                 WELLS     =           0.0000
     HEAD DEP BOUNDS     =     7833838.5000       HEAD DEP BOUNDS     =           0.2881
      STREAM LEAKAGE     =   273926880.0000        STREAM LEAKAGE     =          12.4920
        UZF RECHARGE     =           0.0000          UZF RECHARGE     =           0.0000
               GW ET     =    83702200.0000                 GW ET     =       1.7500E-02
     SURFACE LEAKAGE     =           0.0000       SURFACE LEAKAGE     =           0.0000
    SUPPLEMENTARY WELLS  =       36404.7930      SUPPLEMENTARY WELLS  =           0.0000

               TOTAL OUT =  1030453248.0000                 TOTAL OUT =          31.9174

                IN - OUT =      109952.0000                  IN - OUT =       3.1872E-03

     PERCENT DISCREPANCY =           0.01         PERCENT DISCREPANCY =           0.01






         TIME SUMMARY AT END OF TIME STEP   10 IN STRESS PERIOD   12
                    SECONDS     MINUTES      HOURS       DAYS        YEARS
                    -----------------------------------------------------------
   TIME STEP LENGTH  87600.      1460.0      24.333      1.0139     2.77588E-03
 STRESS PERIOD TIME 8.76000E+05  14600.      243.33      10.139     2.77588E-02
         TOTAL TIME 2.72424E+07 4.54040E+05  7567.3      315.31     0.86326    
1
 
 SOLVING FOR HEAD 
                                                   Max.-Head-Change                         Max.-Flux-Residual
  Residual-Control   Outer-Iter.   Inner-Iter.     Column Row Layer    Maximum-Head-Change  Column Row Layer    Maximum-Flux-Residual          L2-NORM 
          0                 1           2             6   13     1       0.6072402376E-02       6   13    1         0.3225274237E+00      0.1332216266E+01
          0                 2           2            10   10     1       0.2135921495E-02      10   10    1         0.5547375009E-01      0.3373674956E+00
          0                 3           2            10   10     1       0.9599223546E-03      10   10    1         0.2493095552E-01      0.1286010107E+00
          0                 4           2            10   10     1       0.4314060650E-03      10   10    1         0.1120442646E-01      0.5603631962E-01
          0                 5           2            10   10     1       0.1938812044E-03      10   10    1         0.5035465824E-02      0.2499681860E-01
          0                 6           1            10   10     1       0.8713336638E-04      10   10    1         0.2263023139E-02      0.1119111555E-01
          0                 7           1            10   10     1       0.3915909095E-04      10   10    1         0.1017039117E-02      0.5013201271E-02
          0                 8           1            10   10     1       0.1759867714E-04      10   10    1         0.4570730753E-03      0.2246008819E-02
          0                 9           1            10   10     1       0.7909094699E-05      10   10    1         0.2054153737E-03      0.1006310532E-02

    ------------------------------------------------
       NWT REQUIRED            9 OUTER ITERATIONS 
       AND A TOTAL OF         14 INNER ITERATIONS.
    ------------------------------------------------

 NO OUTPUT CONTROL FOR STRESS PERIOD   12   TIME STEP   11
 
 SOLVING FOR HEAD 
                                                   Max.-Head-Change                         Max.-Flux-Residual
  Residual-Control   Outer-Iter.   Inner-Iter.     Column Row Layer    Maximum-Head-Change  Column Row Layer    Maximum-Flux-Residual          L2-NORM 
          0                 1           2             6   13     1       0.5953482115E-02       6   13    1         0.3163129799E+00      0.1325784158E+01
          0                 2           2            10   10     1       0.2134864486E-02      10   10    1         0.5544636959E-01      0.3367937287E+00
          0                 3           2            10   10     1       0.9594457963E-03      10   10    1         0.2491861069E-01      0.1284481037E+00
          0                 4           2            10   10     1       0.4311912098E-03      10   10    1         0.1119886074E-01      0.5596937049E-01
          0                 5           2            10   10     1       0.1937843391E-03      10   10    1         0.5032956539E-02      0.2496685766E-01
          0                 6           1            10   10     1       0.8708969624E-04      10   10    1         0.2261891853E-02      0.1117771599E-01
          0                 7           1            10   10     1       0.3913940321E-04      10   10    1         0.1016529099E-02      0.5007210563E-02
          0                 8           1            10   10     1       0.1758980195E-04      10   10    1         0.4568431487E-03      0.2243330252E-02
          0                 9           1            10   10     1       0.7905093423E-05      10   10    1         0.2053117177E-03      0.1005112601E-02

    ------------------------------------------------
       NWT REQUIRED            9 OUTER ITERATIONS 
       AND A TOTAL OF         14 INNER ITERATIONS.
    ------------------------------------------------

 NO OUTPUT CONTROL FOR STRESS PERIOD   12   TIME STEP   12
 
 SOLVING FOR HEAD 
                                                   Max.-Head-Change                         Max.-Flux-Residual
  Residual-Control   Outer-Iter.   Inner-Iter.     Column Row Layer    Maximum-Head-Change  Column Row Layer    Maximum-Flux-Residual          L2-NORM 
          0                 1           2             6   13     1       0.5842326064E-02       6   13    1         0.3102351316E+00      0.1320015652E+01
          0                 2           2            10   10     1       0.2133852985E-02      10   10    1         0.5542017394E-01      0.3363210868E+00
          0                 3           2            10   10     1       0.9589896287E-03      10   10    1         0.2490679674E-01      0.1282980513E+00
          0                 4           2            10   10     1       0.4309854913E-03      10   10    1         0.1119353289E-01      0.5590906949E-01
          0                 5           2            10   10     1       0.1936915682E-03      10   10    1         0.5030553845E-02      0.2495310482E-01
          0                 6           1            10   10     1       0.8704786092E-04      10   10    1         0.2260808332E-02      0.1116446231E-01
          0                 7           1            10   10     1       0.3912053783E-04      10   10    1         0.1016040483E-02      0.5001225758E-02
          0                 8           1            10   10     1       0.1758129467E-04      10   10    1         0.4566228114E-03      0.2240654590E-02
          0                 9           1            10   10     1       0.7901257720E-05      10   10    1         0.2052123623E-03      0.1003916592E-02

    ------------------------------------------------
       NWT REQUIRED            9 OUTER ITERATIONS 
       AND A TOTAL OF         14 INNER ITERATIONS.
    ------------------------------------------------

 NO OUTPUT CONTROL FOR STRESS PERIOD   12   TIME STEP   13
 
 SOLVING FOR HEAD 
                                                   Max.-Head-Change                         Max.-Flux-Residual
  Residual-Control   Outer-Iter.   Inner-Iter.     Column Row Layer    Maximum-Head-Change  Column Row Layer    Maximum-Flux-Residual          L2-NORM 
          0                 1           2             6   13     1       0.5728913210E-02       6   13    1         0.3042948857E+00      0.1314998331E+01
          0                 2           2            10   10     1       0.2132838250E-02      10   10    1         0.5539389379E-01      0.3358622254E+00
          0                 3           2            10   10     1       0.9585320173E-03      10   10    1         0.2489494508E-01      0.1281548771E+00
          0                 4           2            10   10     1       0.4307791284E-03      10   10    1         0.1118818821E-01      0.5583819285E-01
          0                 5           2            10   10     1       0.1935985091E-03      10   10    1         0.5028143633E-02      0.2490795322E-01
          0                 6           1            10   10     1       0.8700589729E-04      10   10    1         0.2259721461E-02      0.1115132575E-01
          0                 7           1            10   10     1       0.3910161518E-04      10   10    1         0.1015550374E-02      0.4995392551E-02
          0                 8           1            10   10     1       0.1757276239E-04      10   10    1         0.4564018097E-03      0.2238038413E-02
          0                 9           1            10   10     1       0.7897410261E-05      10   10    1         0.2051127078E-03      0.1002743606E-02

    ------------------------------------------------
       NWT REQUIRED            9 OUTER ITERATIONS 
       AND A TOTAL OF         14 INNER ITERATIONS.
    ------------------------------------------------

 NO OUTPUT CONTROL FOR STRESS PERIOD   12   TIME STEP   14
 
 SOLVING FOR HEAD 
                                                   Max.-Head-Change                         Max.-Flux-Residual
  Residual-Control   Outer-Iter.   Inner-Iter.     Column Row Layer    Maximum-Head-Change  Column Row Layer    Maximum-Flux-Residual          L2-NORM 
          0                 1           2             6   13     1       0.5616475230E-02       6   13    1         0.2983919825E+00      0.1310320393E+01
          0                 2           2            10   10     1       0.2131771683E-02      10   10    1         0.5536626595E-01      0.3354199563E+00
          0                 3           2            10   10     1       0.9580511448E-03      10   10    1         0.2488248859E-01      0.1280076853E+00
          0                 4           2            10   10     1       0.4305623264E-03      10   10    1         0.1118257210E-01      0.5577200492E-01
          0                 5           2            10   10     1       0.1935007655E-03      10   10    1         0.5025611612E-02      0.2487824324E-01
          0                 6           1            10   10     1       0.8696183148E-04      10   10    1         0.2258579925E-02      0.1113802931E-01
          0                 7           1            10   10     1       0.3908174911E-04      10   10    1         0.1015035728E-02      0.4989444867E-02
          0                 8           1            10   10     1       0.1756380616E-04      10   10    1         0.4561697930E-03      0.2235378265E-02
          0                 9           1            10   10     1       0.7893372719E-05      10   10    1         0.2050081132E-03      0.1001553188E-02

    ------------------------------------------------
       NWT REQUIRED            9 OUTER ITERATIONS 
       AND A TOTAL OF         14 INNER ITERATIONS.
    ------------------------------------------------

 OUTPUT CONTROL FOR STRESS PERIOD   12   TIME STEP   15
    PRINT BUDGET
    PRINT HEAD FOR ALL LAYERS
    SAVE HEAD FOR ALL LAYERS
    SAVE BUDGET
 UBUDSV SAVING "         STORAGE" ON UNIT102 AT TIME STEP    15, STRESS PERIOD   12
 UBUDSV SAVING "   CONSTANT HEAD" ON UNIT102 AT TIME STEP    15, STRESS PERIOD   12
 UBUDSV SAVING "FLOW RIGHT FACE " ON UNIT102 AT TIME STEP    15, STRESS PERIOD   12
 UBUDSV SAVING "FLOW FRONT FACE " ON UNIT102 AT TIME STEP    15, STRESS PERIOD   12

  HEAD DEP BOUNDS   PERIOD   12   STEP    15
 BOUNDARY      1   LAYER   1   ROW    13   COL     1   RATE   -0.288261    
 BOUNDARY      2   LAYER   1   ROW    14   COL     9   RATE    0.273444    



 STREAM LISTING     PERIOD     12   STEP       15

 LAYER ROW COL. STREAM  RCH.  FLOW INTO     FLOW TO   FLOW OUT OF   OVRLND.     DIRECT     STREAM       STREAM     STREAM     STREAM   STREAMBED  STREAMBED
                SEG.NO.  NO.  STRM. RCH.    AQUIFER    STRM. RCH.    RUNOFF     PRECIP       ET          HEAD       DEPTH      WIDTH   CONDCTNC.   GRADIENT

   1    1    1     1     1    3.5000E+00  8.3255E-02   3.4167E+00  0.000E+00  0.000E+00  0.000E+00  1.09371E+03  6.654E-01  5.047E+00  2.271E-02  1.222E+00
   1    2    2     1     2    3.4167E+00  1.2792E-01   3.2888E+00  0.000E+00  0.000E+00  0.000E+00  1.08872E+03  6.583E-01  4.995E+00  3.497E-02  1.219E+00
   1    3    3     1     3    3.2888E+00  1.0809E-01   3.1807E+00  0.000E+00  0.000E+00  0.000E+00  1.08307E+03  6.502E-01  4.935E+00  2.961E-02  1.217E+00
   1    3    4     1     4    3.1807E+00  9.8702E-02   3.0820E+00  0.000E+00  0.000E+00  0.000E+00  1.07805E+03  6.428E-01  4.882E+00  2.709E-02  1.214E+00
   1    4    5     2     1    1.0820E+00  2.4731E-01   8.3473E-01  0.000E+00  0.000E+00  0.000E+00  1.07210E+03  1.706E-01  1.200E+01  7.800E-02  1.057E+00
   1    5    6     2     2    8.3473E-01  1.8877E-01   6.4596E-01  0.000E+00  0.000E+00  0.000E+00  1.06666E+03  1.462E-01  1.200E+01  6.000E-02  1.049E+00
   1    6    6     2     3    6.4596E-01  1.8736E-01   4.5860E-01  0.000E+00  0.000E+00  0.000E+00  1.06192E+03  1.226E-01  1.200E+01  6.000E-02  1.041E+00
   1    7    6     2     4    4.5860E-01  1.8574E-01   2.7286E-01  0.000E+00  0.000E+00  0.000E+00  1.05717E+03  9.573E-02  1.200E+01  6.000E-02  1.032E+00
   1    8    6     2     5    2.7286E-01  1.8377E-01   8.9092E-02  0.000E+00  0.000E+00  0.000E+00  1.05242E+03  6.276E-02  1.200E+01  6.000E-02  1.021E+00
   1    3    5     3     1    2.0000E+00  2.8252E-01   1.7175E+00  0.000E+00  0.000E+00  0.000E+00  1.07555E+03  1.909E+00  9.636E+00  7.227E-02  1.955E+00
   1    3    6     3     2    1.7175E+00  2.4905E-01   1.4684E+00  0.000E+00  0.000E+00  0.000E+00  1.07264E+03  1.727E+00  8.909E+00  6.682E-02  1.864E+00
   1    3    7     3     3    1.4684E+00  1.9718E-01   1.2712E+00  0.000E+00  0.000E+00  0.000E+00  1.06987E+03  1.555E+00  8.218E+00  5.547E-02  1.777E+00
   1    4    8     3     4    1.2712E+00  2.2567E-01   1.0456E+00  0.000E+00  0.000E+00  0.000E+00  1.06682E+03  1.364E+00  7.455E+00  6.709E-02  1.682E+00
   1    5    8     3     5    1.0456E+00  1.5790E-01   8.8768E-01  0.000E+00  0.000E+00  0.000E+00  1.06362E+03  1.164E+00  6.655E+00  4.991E-02  1.582E+00
   1    6    8     3     6    8.8768E-01  5.5980E-02   8.3170E-01  0.000E+00  0.000E+00  0.000E+00  1.06158E+03  1.036E+00  6.145E+00  1.844E-02  1.518E+00
   1    5   10     4     1    1.0000E+01  9.0919E-02   9.9091E+00  0.000E+00  0.000E+00  0.000E+00  1.07836E+03  6.368E-01  1.000E+01  2.500E-02  1.212E+00
   1    5    9     4     2    9.9091E+00  1.8158E-01   9.7275E+00  0.000E+00  0.000E+00  0.000E+00  1.07154E+03  6.315E-01  1.000E+01  5.000E-02  1.211E+00
   1    6    8     4     3    9.7275E+00  1.2689E-01   9.6006E+00  0.000E+00  0.000E+00  0.000E+00  1.06381E+03  6.256E-01  1.000E+01  3.500E-02  1.209E+00
   1    6    8     5     1    1.0432E+01  2.2686E-01   1.0205E+01  0.000E+00  0.000E+00  0.000E+00  1.05868E+03  6.790E-01  1.542E+01  6.166E-02  1.226E+00
   1    7    7     5     2    1.0205E+01  2.7894E-01   9.9265E+00  0.000E+00  0.000E+00  0.000E+00  1.05417E+03  6.732E-01  1.519E+01  7.594E-02  1.224E+00
   1    8    7     5     3    9.9265E+00  1.9221E-01   9.7343E+00  0.000E+00  0.000E+00  0.000E+00  1.04992E+03  6.676E-01  1.497E+01  5.241E-02  1.223E+00
   1    8    6     5     4    9.7343E+00  1.3577E-01   9.5985E+00  0.000E+00  0.000E+00  0.000E+00  1.04691E+03  6.637E-01  1.482E+01  3.706E-02  1.221E+00
   1    9    6     6     1    9.6876E+00  2.2120E-01   9.4664E+00  0.000E+00  0.000E+00  0.000E+00  1.04341E+03  6.866E-01  1.200E+01  6.000E-02  1.229E+00
   1   10    7     6     2    9.4664E+00  2.2062E-01   9.2458E+00  0.000E+00  0.000E+00  0.000E+00  1.03886E+03  6.771E-01  1.200E+01  6.000E-02  1.226E+00
   1   11    7     6     3    9.2458E+00  2.2005E-01   9.0258E+00  0.000E+00  0.000E+00  0.000E+00  1.03430E+03  6.674E-01  1.200E+01  6.000E-02  1.222E+00
   1   12    7     6     4    9.0258E+00  2.1947E-01   8.8063E+00  0.000E+00  0.000E+00  0.000E+00  1.02975E+03  6.578E-01  1.200E+01  6.000E-02  1.219E+00
   1   13    7     6     5    8.8063E+00 -1.7701E-01   8.9833E+00  0.000E+00  0.000E+00  0.000E+00  1.02657E+03  6.568E-01  1.200E+01  2.400E-01 -2.459E-01
   1   14    9     7     1    1.5000E+02  1.1549E+00   1.4885E+02  0.000E+00  0.000E+00  0.000E+00  1.03987E+03  2.288E+00  5.530E+01  5.593E-01  6.883E-01
   1   13    8     7     2    1.4885E+02  1.6459E+00   1.4720E+02  0.000E+00  0.000E+00  0.000E+00  1.03478E+03  2.281E+00  5.526E+01  6.149E-01  8.923E-01
   1   13    7     7     3    1.4720E+02  1.3342E+00   1.4586E+02  0.000E+00  0.000E+00  0.000E+00  1.02969E+03  2.273E+00  5.523E+01  5.586E-01  7.962E-01
   1   13    6     8     1    1.5485E+02  7.1994E-01   1.5413E+02  0.000E+00  0.000E+00  0.000E+00  1.02472E+03  2.848E+00  4.130E+01  4.208E-01  5.702E-01
   1   13    5     8     2    1.5413E+02 -9.4845E-02   1.5422E+02  0.000E+00  0.000E+00  0.000E+00  1.01847E+03  2.846E+00  4.127E+01  4.205E+00 -7.518E-03
   1   13    4     8     3    1.5422E+02 -3.2559E+00   1.5748E+02  0.000E+00  0.000E+00  0.000E+00  1.01223E+03  2.858E+00  4.143E+01  4.222E+00 -2.570E-01
   1   13    3     8     4    1.5748E+02 -4.2142E+00   1.6169E+02  0.000E+00  0.000E+00  0.000E+00  1.00601E+03  2.883E+00  4.180E+01  4.260E+00 -3.298E-01
   1   13    2     8     5    1.6169E+02 -2.8163E+00   1.6451E+02  0.000E+00  0.000E+00  0.000E+00  9.99782E+02  2.907E+00  4.215E+01  4.295E+00 -2.186E-01
   1   13    1     8     6    1.6451E+02 -2.0418E+00   1.6655E+02  0.000E+00  0.000E+00  0.000E+00  9.94798E+02  2.923E+00  4.238E+01  2.591E+00 -2.627E-01
   1    6    8     9     1    0.0000E+00  0.0000E+00   0.0000E+00  0.000E+00  0.000E+00  0.000E+00  1.07850E+03  0.000E+00  4.000E+00  0.000E+00  1.000E+00



 UBDSV3 SAVING "     NETRECHARGE" ON UNIT 100 AT TIME STEP    15, STRESS PERIOD  12
 UBDSV3 SAVING "    NETDISCHARGE" ON UNIT 101 AT TIME STEP    15, STRESS PERIOD  12
 UBDSV3 SAVING "           GW ET" ON UNIT  61 AT TIME STEP    15, STRESS PERIOD  12
 UBDSV3 SAVING "    UZF RECHARGE" ON UNIT  61 AT TIME STEP    15, STRESS PERIOD  12
 UBDSV3 SAVING " SURFACE LEAKAGE" ON UNIT  61 AT TIME STEP    15, STRESS PERIOD  12
 UBDSV3 SAVING "       HORT+DUNN" ON UNIT  61 AT TIME STEP    15, STRESS PERIOD  12
 UBDSV3 SAVING "  STORAGE CHANGE" ON UNIT  61 AT TIME STEP    15, STRESS PERIOD  12


UNSATURATED ZONE PACKAGE VOLUMETRIC BUDGET FOR  TIME STEP    15 STRESS PERIOD   12
  ------------------------------------------------------------------------------



     CUMULATIVE VOLUMES      L**3       RATES FOR THIS TIME STEP      L**3/T
     ------------------                 ------------------------

           IN:                                      IN:
           ---                                      ---
        INFILTRATION =    26615969.2213          INFILTRATION =       0.0000E+00

          OUT:                                     OUT:
          ----                                     ----
              UZF ET =   553805126.0064                UZF ET =       0.0000E+00
        UZF RECHARGE =   685046197.7022          UZF RECHARGE =          22.0078

            IN - OUT = -1212235354.4874              IN - OUT =         -22.0078

          STORAGE:                                 STORAGE:
          --------                                 --------
      STORAGE CHANGE = -1212209885.2629        STORAGE CHANGE =         -22.0078

 PERCENT DISCREPANCY IS DIFFERENCE BETWEEN IN-OUT MINUS CHANGE IN STORAGE
 DIVIDED BY THE AVERAGE OF IN AND OUT TIMES 100

 PERCENT DISCREPANCY =          -0.00     PERCENT DISCREPANCY =           0.00






1
              HEAD IN LAYER   1 AT END OF TIME STEP    15 IN STRESS PERIOD   12
  -----------------------------------------------------------------------------

           1       2       3       4       5       6       7       8       9      10
 ...................................................................................
   1  1035.46 1033.79 6999.00 6999.00 6999.00 6999.00 6999.00 6999.00 6999.00 6999.00
   2  1035.19 1033.35 1032.53 6999.00 6999.00 1034.14 1034.37 1034.46 6999.00 6999.00
   3  6999.00 1032.66 1031.90 1031.51 1032.06 1032.79 1033.53 1033.75 6999.00 6999.00
   4  1032.18 1031.97 1031.30 1030.73 1030.67 1030.69 1031.44 1032.73 1032.63 6999.00
   5  1031.71 1031.10 1030.42 1029.89 1029.89 1030.04 1030.18 1030.67 1031.31 1031.71
   6  1031.12 1030.28 1029.52 1029.04 1029.08 1029.37 1029.66 1030.22 1031.14 1032.47
   7  1030.59 1029.25 1028.48 1028.06 1028.17 1028.56 1029.00 1029.57 1030.91 6999.00
   8  6999.00 1027.75 1027.19 1026.88 1027.05 1027.54 1028.01 1029.18 1030.56 6999.00
   9  6999.00 1025.49 1025.30 1025.27 1025.60 1026.26 1026.84 1028.27 1030.07 6999.00
  10  6999.00 1022.37 1022.64 1023.22 1023.95 1024.98 1025.97 1027.74 1030.04 1030.84
  11  6999.00 1017.41 1018.27 1020.50 1022.11 1023.86 1025.47 1027.93 1030.82 6999.00
  12  1003.33 1009.04 1012.75 1016.73 1020.01 1023.01 1025.53 1029.26 1033.03 6999.00
  13   995.59 1000.44 1007.00 1013.00 1018.49 1023.01 1027.30 1032.10 1035.26 6999.00
  14  6999.00 1007.68 1010.37 1014.91 1019.63 1024.04 1028.73 1033.96 1037.80 6999.00
  15  6999.00 6999.00 1015.05 1017.74 1021.15 1023.97 6999.00 6999.00 6999.00 6999.00

 HEAD WILL BE SAVED ON UNIT   62 AT END OF TIME STEP   15, STRESS PERIOD   12
1
  VOLUMETRIC BUDGET FOR ENTIRE MODEL AT END OF TIME STEP   15, STRESS PERIOD  12
  ------------------------------------------------------------------------------

     CUMULATIVE VOLUMES      L**3       RATES FOR THIS TIME STEP      L**3/T
     ------------------                 ------------------------

           IN:                                      IN:
           ---                                      ---
             STORAGE     =    31665546.0000               STORAGE     =       2.2010E-02
       CONSTANT HEAD     =           0.0000         CONSTANT HEAD     =           0.0000
               WELLS     =           0.0000                 WELLS     =           0.0000
     HEAD DEP BOUNDS     =     7648007.5000       HEAD DEP BOUNDS     =           0.2734
      STREAM LEAKAGE     =   320166208.0000        STREAM LEAKAGE     =           9.5487
        UZF RECHARGE     =   685046592.0000          UZF RECHARGE     =          22.0078
               GW ET     =           0.0000                 GW ET     =           0.0000
     SURFACE LEAKAGE     =           0.0000       SURFACE LEAKAGE     =           0.0000
    SUPPLEMENTARY WELLS  =           0.0000      SUPPLEMENTARY WELLS  =           0.0000

                TOTAL IN =  1044526336.0000                  TOTAL IN =          31.8519

          OUT:                                     OUT:
          ----                                     ----
             STORAGE     =   673280704.0000               STORAGE     =          18.9428
       CONSTANT HEAD     =           0.0000         CONSTANT HEAD     =           0.0000
               WELLS     =           0.0000                 WELLS     =           0.0000
     HEAD DEP BOUNDS     =     7960067.0000       HEAD DEP BOUNDS     =           0.2883
      STREAM LEAKAGE     =   279427808.0000        STREAM LEAKAGE     =          12.6002
        UZF RECHARGE     =           0.0000          UZF RECHARGE     =           0.0000
               GW ET     =    83709880.0000                 GW ET     =       1.7500E-02
     SURFACE LEAKAGE     =           0.0000       SURFACE LEAKAGE     =           0.0000
    SUPPLEMENTARY WELLS  =       36404.7930      SUPPLEMENTARY WELLS  =           0.0000

               TOTAL OUT =  1044414848.0000                 TOTAL OUT =          31.8488

                IN - OUT =      111488.0000                  IN - OUT =       3.1681E-03

     PERCENT DISCREPANCY =           0.01         PERCENT DISCREPANCY =           0.01






         TIME SUMMARY AT END OF TIME STEP   15 IN STRESS PERIOD   12
                    SECONDS     MINUTES      HOURS       DAYS        YEARS
                    -----------------------------------------------------------
   TIME STEP LENGTH  87600.      1460.0      24.333      1.0139     2.77588E-03
 STRESS PERIOD TIME 1.31400E+06  21900.      365.00      15.208     4.16381E-02
         TOTAL TIME 2.76804E+07 4.61340E+05  7689.0      320.38     0.87714    
1
 
 SOLVING FOR HEAD 
                                                   Max.-Head-Change                         Max.-Flux-Residual
  Residual-Control   Outer-Iter.   Inner-Iter.     Column Row Layer    Maximum-Head-Change  Column Row Layer    Maximum-Flux-Residual          L2-NORM 
          0                 1           2             6   13     1       0.5505442941E-02       6   13    1         0.2925507709E+00      0.1306017216E+01
          0                 2           2            10   10     1       0.2130750984E-02      10   10    1         0.5533982771E-01      0.3349720967E+00
          0                 3           2            10   10     1       0.9575909212E-03      10   10    1         0.2487056764E-01      0.1278589363E+00
          0                 4           2            10   10     1       0.4303548195E-03      10   10    1         0.1117719707E-01      0.5570586604E-01
          0                 5           2            10   10     1       0.1934072064E-03      10   10    1         0.5023188118E-02      0.2484862547E-01
          0                 6           1            10   10     1       0.8691964850E-04      10   10    1         0.2257487236E-02      0.1112477944E-01
          0                 7           1            10   10     1       0.3906273092E-04      10   10    1         0.1014543079E-02      0.4983518717E-02
          0                 8           1            10   10     1       0.1755523185E-04      10   10    1         0.4559476801E-03      0.2232727670E-02
          0                 9           1            10   10     1       0.7889507003E-05      10   10    1         0.2049079732E-03      0.1000367449E-02

    ------------------------------------------------
       NWT REQUIRED            9 OUTER ITERATIONS 
       AND A TOTAL OF         14 INNER ITERATIONS.
    ------------------------------------------------

 NO OUTPUT CONTROL FOR STRESS PERIOD   12   TIME STEP   16
 
 SOLVING FOR HEAD 
                                                   Max.-Head-Change                         Max.-Flux-Residual
  Residual-Control   Outer-Iter.   Inner-Iter.     Column Row Layer    Maximum-Head-Change  Column Row Layer    Maximum-Flux-Residual          L2-NORM 
          0                 1           2             6   13     1       0.5395606560E-02       6   13    1         0.2867766614E+00      0.1301528925E+01
          0                 2           2            10   10     1       0.2129678309E-02      10   10    1         0.5531204261E-01      0.3344882807E+00
          0                 3           2            10   10     1       0.9571072745E-03      10   10    1         0.2485803972E-01      0.1277081492E+00
          0                 4           2            10   10     1       0.4301367579E-03      10   10    1         0.1117154852E-01      0.5563963066E-01
          0                 5           2            10   10     1       0.1933088905E-03      10   10    1         0.5020641357E-02      0.2481899134E-01
          0                 6           1            10   10     1       0.8687532282E-04      10   10    1         0.2256339003E-02      0.1111152097E-01
          0                 7           1            10   10     1       0.3904274655E-04      10   10    1         0.1014025395E-02      0.4977592095E-02
          0                 8           1            10   10     1       0.1754622235E-04      10   10    1         0.4557142887E-03      0.2230087810E-02
          0                 9           1            10   10     1       0.7885445199E-05      10   10    1         0.2048027532E-03      0.9991810904E-03

    ------------------------------------------------
       NWT REQUIRED            9 OUTER ITERATIONS 
       AND A TOTAL OF         14 INNER ITERATIONS.
    ------------------------------------------------

 NO OUTPUT CONTROL FOR STRESS PERIOD   12   TIME STEP   17
 
 SOLVING FOR HEAD 
                                                   Max.-Head-Change                         Max.-Flux-Residual
  Residual-Control   Outer-Iter.   Inner-Iter.     Column Row Layer    Maximum-Head-Change  Column Row Layer    Maximum-Flux-Residual          L2-NORM 
          0                 1           2             6   13     1       0.5287247250E-02       6   13    1         0.2810626738E+00      0.1297773331E+01
          0                 2           2            10   10     1       0.2128651421E-02      10   10    1         0.5528544496E-01      0.3340674490E+00
          0                 3           2            10   10     1       0.9566442409E-03      10   10    1         0.2484604639E-01      0.1275618116E+00
          0                 4           2            10   10     1       0.4299279762E-03      10   10    1         0.1116614064E-01      0.5557416005E-01
          0                 5           2            10   10     1       0.1932147525E-03      10   10    1         0.5018202950E-02      0.2478963036E-01
          0                 6           1            10   10     1       0.8683287772E-04      10   10    1         0.2255239554E-02      0.1109837552E-01
          0                 7           1            10   10     1       0.3902360930E-04      10   10    1         0.1013529675E-02      0.4971705137E-02
          0                 8           1            10   10     1       0.1753759402E-04      10   10    1         0.4554907804E-03      0.2227442386E-02
          0                 9           1            10   10     1       0.7881555222E-05      10   10    1         0.2047019809E-03      0.9980030079E-03

    ------------------------------------------------
       NWT REQUIRED            9 OUTER ITERATIONS 
       AND A TOTAL OF         14 INNER ITERATIONS.
    ------------------------------------------------

 NO OUTPUT CONTROL FOR STRESS PERIOD   12   TIME STEP   18
 
 SOLVING FOR HEAD 
                                                   Max.-Head-Change                         Max.-Flux-Residual
  Residual-Control   Outer-Iter.   Inner-Iter.     Column Row Layer    Maximum-Head-Change  Column Row Layer    Maximum-Flux-Residual          L2-NORM 
          0                 1           2             6   13     1       0.5180635206E-02       6   13    1         0.2754254263E+00      0.1294350707E+01
          0                 2           2            10   10     1       0.2127572849E-02      10   10    1         0.5525750346E-01      0.3336814173E+00
          0                 3           2            10   10     1       0.9561580126E-03      10   10    1         0.2483344996E-01      0.1274228177E+00
          0                 4           2            10   10     1       0.4297087849E-03      10   10    1         0.1116046209E-01      0.5551119474E-01
          0                 5           2            10   10     1       0.1931159434E-03      10   10    1         0.5015643076E-02      0.2476120547E-01
          0                 6           1            10   10     1       0.8678833595E-04      10   10    1         0.2254085585E-02      0.1108558540E-01
          0                 7           1            10   10     1       0.3900353114E-04      10   10    1         0.1013009489E-02      0.4965957099E-02
          0                 8           1            10   10     1       0.1752854325E-04      10   10    1         0.4552562938E-03      0.2224865169E-02
          0                 9           1            10   10     1       0.7877475661E-05      10   10    1         0.2045962827E-03      0.9968557613E-03

    ------------------------------------------------
       NWT REQUIRED            9 OUTER ITERATIONS 
       AND A TOTAL OF         14 INNER ITERATIONS.
    ------------------------------------------------

 NO OUTPUT CONTROL FOR STRESS PERIOD   12   TIME STEP   19
 
 SOLVING FOR HEAD 
                                                   Max.-Head-Change                         Max.-Flux-Residual
  Residual-Control   Outer-Iter.   Inner-Iter.     Column Row Layer    Maximum-Head-Change  Column Row Layer    Maximum-Flux-Residual          L2-NORM 
          0                 1           2             6   13     1       0.5075896064E-02       6   13    1         0.2698803286E+00      0.1291279507E+01
          0                 2           2            10   10     1       0.2126491474E-02      10   10    1         0.5522948869E-01      0.3333084305E+00
          0                 3           2            10   10     1       0.9556705339E-03      10   10    1         0.2482082085E-01      0.1272804431E+00
          0                 4           2            10   10     1       0.4294890356E-03      10   10    1         0.1115476897E-01      0.5544654402E-01
          0                 5           2            10   10     1       0.1930168849E-03      10   10    1         0.5013076699E-02      0.2473215273E-01
          0                 6           1            10   10     1       0.8674368337E-04      10   10    1         0.2252928725E-02      0.1107257554E-01
          0                 7           1            10   10     1       0.3898340345E-04      10   10    1         0.1012488014E-02      0.4960134819E-02
          0                 8           1            10   10     1       0.1751947098E-04      10   10    1         0.4550212337E-03      0.2222255451E-02
          0                 9           1            10   10     1       0.7873385845E-05      10   10    1         0.2044903262E-03      0.9956788044E-03

    ------------------------------------------------
       NWT REQUIRED            9 OUTER ITERATIONS 
       AND A TOTAL OF         14 INNER ITERATIONS.
    ------------------------------------------------

 NO OUTPUT CONTROL FOR STRESS PERIOD   12   TIME STEP   20
 
 SOLVING FOR HEAD 
                                                   Max.-Head-Change                         Max.-Flux-Residual
  Residual-Control   Outer-Iter.   Inner-Iter.     Column Row Layer    Maximum-Head-Change  Column Row Layer    Maximum-Flux-Residual          L2-NORM 
          0                 1           2             6   13     1       0.4973207539E-02       6   13    1         0.2644379990E+00      0.1288231787E+01
          0                 2           2            10   10     1       0.2125455810E-02      10   10    1         0.5520266400E-01      0.3329183326E+00
          0                 3           2            10   10     1       0.9552035388E-03      10   10    1         0.2480872502E-01      0.1271359623E+00
          0                 4           2            10   10     1       0.4292784659E-03      10   10    1         0.1114931481E-01      0.5538157723E-01
          0                 5           2            10   10     1       0.1929219405E-03      10   10    1         0.5010617410E-02      0.2470299966E-01
          0                 6           1            10   10     1       0.8670087412E-04      10   10    1         0.2251819846E-02      0.1105952275E-01
          0                 7           1            10   10     1       0.3896410213E-04      10   10    1         0.1011988039E-02      0.4954294619E-02
          0                 8           1            10   10     1       0.1751076811E-04      10   10    1         0.4547958068E-03      0.2219640855E-02
          0                 9           1            10   10     1       0.7869462603E-05      10   10    1         0.2043886927E-03      0.9945080045E-03

    ------------------------------------------------
       NWT REQUIRED            9 OUTER ITERATIONS 
       AND A TOTAL OF         14 INNER ITERATIONS.
    ------------------------------------------------

 NO OUTPUT CONTROL FOR STRESS PERIOD   12   TIME STEP   21
 
 SOLVING FOR HEAD 
                                                   Max.-Head-Change                         Max.-Flux-Residual
  Residual-Control   Outer-Iter.   Inner-Iter.     Column Row Layer    Maximum-Head-Change  Column Row Layer    Maximum-Flux-Residual          L2-NORM 
          0                 1           2             6   13     1       0.4872512835E-02       6   13    1         0.2590961871E+00      0.1284880644E+01
          0                 2           2            10   10     1       0.2124368598E-02      10   10    1         0.5517449664E-01      0.3324881509E+00
          0                 3           2            10   10     1       0.9547134582E-03      10   10    1         0.2479602788E-01      0.1269893558E+00
          0                 4           2            10   10     1       0.4290575566E-03      10   10    1         0.1114359136E-01      0.5531699118E-01
          0                 5           2            10   10     1       0.1928223650E-03      10   10    1         0.5008037512E-02      0.2467410269E-01
          0                 6           1            10   10     1       0.8665599119E-04      10   10    1         0.2250656955E-02      0.1104658672E-01
          0                 7           1            10   10     1       0.3894387140E-04      10   10    1         0.1011463872E-02      0.4948503183E-02
          0                 8           1            10   10     1       0.1750164981E-04      10   10    1         0.4545595474E-03      0.2217049862E-02
          0                 9           1            10   10     1       0.7865352529E-05      10   10    1         0.2042822033E-03      0.9933490300E-03

    ------------------------------------------------
       NWT REQUIRED            9 OUTER ITERATIONS 
       AND A TOTAL OF         14 INNER ITERATIONS.
    ------------------------------------------------

 NO OUTPUT CONTROL FOR STRESS PERIOD   12   TIME STEP   22
 
 SOLVING FOR HEAD 
                                                   Max.-Head-Change                         Max.-Flux-Residual
  Residual-Control   Outer-Iter.   Inner-Iter.     Column Row Layer    Maximum-Head-Change  Column Row Layer    Maximum-Flux-Residual          L2-NORM 
          0                 1           2             6   13     1       0.4773963802E-02       6   13    1         0.2538635100E+00      0.1282158790E+01
          0                 2           2            10   10     1       0.2123278517E-02      10   10    1         0.5514625657E-01      0.3321205744E+00
          0                 3           2            10   10     1       0.9542220508E-03      10   10    1         0.2478329708E-01      0.1268467866E+00
          0                 4           2            10   10     1       0.4288360355E-03      10   10    1         0.1113785235E-01      0.5525245506E-01
          0                 5           2            10   10     1       0.1927225072E-03      10   10    1         0.5005450432E-02      0.2464511023E-01
          0                 6           1            10   10     1       0.8661097820E-04      10   10    1         0.2249490754E-02      0.1103360034E-01
          0                 7           1            10   10     1       0.3892358114E-04      10   10    1         0.1010938181E-02      0.4942689887E-02
          0                 8           1            10   10     1       0.1749250400E-04      10   10    1         0.4543225863E-03      0.2214447784E-02
          0                 9           1            10   10     1       0.7861230198E-05      10   10    1         0.2041753912E-03      0.9921836001E-03

    ------------------------------------------------
       NWT REQUIRED            9 OUTER ITERATIONS 
       AND A TOTAL OF         14 INNER ITERATIONS.
    ------------------------------------------------

 NO OUTPUT CONTROL FOR STRESS PERIOD   12   TIME STEP   23
 
 SOLVING FOR HEAD 
                                                   Max.-Head-Change                         Max.-Flux-Residual
  Residual-Control   Outer-Iter.   Inner-Iter.     Column Row Layer    Maximum-Head-Change  Column Row Layer    Maximum-Flux-Residual          L2-NORM 
          0                 1           2            10   10     1       0.4722270796E-02       6   13    1         0.2487363205E+00      0.1279560873E+01
          0                 2           2            10   10     1       0.2122234318E-02      10   10    1         0.5511920869E-01      0.3317658181E+00
          0                 3           2            10   10     1       0.9537512513E-03      10   10    1         0.2477110176E-01      0.1267109577E+00
          0                 4           2            10   10     1       0.4286237695E-03      10   10    1         0.1113235385E-01      0.5519067720E-01
          0                 5           2            10   10     1       0.1926268067E-03      10   10    1         0.5002971379E-02      0.2461719264E-01
          0                 6           1            10   10     1       0.8656783230E-04      10   10    1         0.2248373070E-02      0.1102103098E-01
          0                 7           1            10   10     1       0.3890412950E-04      10   10    1         0.1010434282E-02      0.4937038829E-02
          0                 8           1            10   10     1       0.1748373436E-04      10   10    1         0.4540954111E-03      0.2211909582E-02
          0                 9           1            10   10     1       0.7857276943E-05      10   10    1         0.2040729785E-03      0.9910436529E-03

    ------------------------------------------------
       NWT REQUIRED            9 OUTER ITERATIONS 
       AND A TOTAL OF         14 INNER ITERATIONS.
    ------------------------------------------------

 NO OUTPUT CONTROL FOR STRESS PERIOD   12   TIME STEP   24
 
 SOLVING FOR HEAD 
                                                   Max.-Head-Change                         Max.-Flux-Residual
  Residual-Control   Outer-Iter.   Inner-Iter.     Column Row Layer    Maximum-Head-Change  Column Row Layer    Maximum-Flux-Residual          L2-NORM 
          0                 1           2            10   10     1       0.4719839844E-02       6   13    1         0.2436945939E+00      0.1277215448E+01
          0                 2           2            10   10     1       0.2121138492E-02      10   10    1         0.5509081838E-01      0.3314183942E+00
          0                 3           2            10   10     1       0.9532572835E-03      10   10    1         0.2475830400E-01      0.1265706402E+00
          0                 4           2            10   10     1       0.4284011071E-03      10   10    1         0.1112658500E-01      0.5512693661E-01
          0                 5           2            10   10     1       0.1925264404E-03      10   10    1         0.5000370999E-02      0.2458853809E-01
          0                 6           1            10   10     1       0.8652259246E-04      10   10    1         0.2247200941E-02      0.1100819006E-01
          0                 7           1            10   10     1       0.3888373820E-04      10   10    1         0.1009905952E-02      0.4931288208E-02
          0                 8           1            10   10     1       0.1747454378E-04      10   10    1         0.4538572751E-03      0.2209334357E-02
          0                 9           1            10   10     1       0.7853134104E-05      10   10    1         0.2039656410E-03      0.9898911032E-03

    ------------------------------------------------
       NWT REQUIRED            9 OUTER ITERATIONS 
       AND A TOTAL OF         14 INNER ITERATIONS.
    ------------------------------------------------

 NO OUTPUT CONTROL FOR STRESS PERIOD   12   TIME STEP   25
 
 SOLVING FOR HEAD 
                                                   Max.-Head-Change                         Max.-Flux-Residual
  Residual-Control   Outer-Iter.   Inner-Iter.     Column Row Layer    Maximum-Head-Change  Column Row Layer    Maximum-Flux-Residual          L2-NORM 
          0                 1           2            10   10     1       0.4717402803E-02       6   13    1         0.2387616481E+00      0.1274667314E+01
          0                 2           2            10   10     1       0.2120039953E-02      10   10    1         0.5506235711E-01      0.3310206165E+00
          0                 3           2            10   10     1       0.9527621071E-03      10   10    1         0.2474547463E-01      0.1264230948E+00
          0                 4           2            10   10     1       0.4281779058E-03      10   10    1         0.1112080207E-01      0.5506202535E-01
          0                 5           2            10   10     1       0.1924258340E-03      10   10    1         0.4997764342E-02      0.2455961922E-01
          0                 6           1            10   10     1       0.8647724558E-04      10   10    1         0.2246026011E-02      0.1099527843E-01
          0                 7           1            10   10     1       0.3886329913E-04      10   10    1         0.1009376372E-02      0.4925518396E-02
          0                 8           1            10   10     1       0.1746533144E-04      10   10    1         0.4536185809E-03      0.2206755376E-02
          0                 9           1            10   10     1       0.7848982261E-05      10   10    1         0.2038580580E-03      0.9887465280E-03

    ------------------------------------------------
       NWT REQUIRED            9 OUTER ITERATIONS 
       AND A TOTAL OF         14 INNER ITERATIONS.
    ------------------------------------------------

 NO OUTPUT CONTROL FOR STRESS PERIOD   12   TIME STEP   26
 
 SOLVING FOR HEAD 
                                                   Max.-Head-Change                         Max.-Flux-Residual
  Residual-Control   Outer-Iter.   Inner-Iter.     Column Row Layer    Maximum-Head-Change  Column Row Layer    Maximum-Flux-Residual          L2-NORM 
          0                 1           2            10   10     1       0.4714959768E-02       6   13    1         0.2339447491E+00      0.1271744446E+01
          0                 2           2            10   10     1       0.2118938741E-02      10   10    1         0.5503382599E-01      0.3305819121E+00
          0                 3           2            10   10     1       0.9522657377E-03      10   10    1         0.2473261411E-01      0.1262692011E+00
          0                 4           2            10   10     1       0.4279541717E-03      10   10    1         0.1111500522E-01      0.5499525023E-01
          0                 5           2            10   10     1       0.1923249894E-03      10   10    1         0.4995151474E-02      0.2453003898E-01
          0                 6           1            10   10     1       0.8643179215E-04      10   10    1         0.2244848306E-02      0.1098211375E-01
          0                 7           1            10   10     1       0.3884281253E-04      10   10    1         0.1008845553E-02      0.4919646075E-02
          0                 8           1            10   10     1       0.1745609784E-04      10   10    1         0.4533793295E-03      0.2204131165E-02
          0                 9           1            10   10     1       0.7844820663E-05      10   10    1         0.2037502249E-03      0.9875643335E-03

    ------------------------------------------------
       NWT REQUIRED            9 OUTER ITERATIONS 
       AND A TOTAL OF         14 INNER ITERATIONS.
    ------------------------------------------------

 NO OUTPUT CONTROL FOR STRESS PERIOD   12   TIME STEP   27
 
 SOLVING FOR HEAD 
                                                   Max.-Head-Change                         Max.-Flux-Residual
  Residual-Control   Outer-Iter.   Inner-Iter.     Column Row Layer    Maximum-Head-Change  Column Row Layer    Maximum-Flux-Residual          L2-NORM 
          0                 1           2            10   10     1       0.4712510823E-02       2    1    1         0.2323110086E+00      0.1269470989E+01
          0                 2           2            10   10     1       0.2117834893E-02      10   10    1         0.5500522597E-01      0.3301976008E+00
          0                 3           2            10   10     1       0.9517681933E-03      10   10    1         0.2471972286E-01      0.1261251862E+00
          0                 4           2            10   10     1       0.4277299139E-03      10   10    1         0.1110919468E-01      0.5493159297E-01
          0                 5           2            10   10     1       0.1922239121E-03      10   10    1         0.4992532511E-02      0.2450158875E-01
          0                 6           1            10   10     1       0.8638623517E-04      10   10    1         0.2243667887E-02      0.1096938015E-01
          0                 7           1            10   10     1       0.3882227991E-04      10   10    1         0.1008313523E-02      0.4913945459E-02
          0                 8           1            10   10     1       0.1744684348E-04      10   10    1         0.4531395372E-03      0.2201578928E-02
          0                 9           1            10   10     1       0.7840649561E-05      10   10    1         0.2036421515E-03      0.9864213959E-03

    ------------------------------------------------
       NWT REQUIRED            9 OUTER ITERATIONS 
       AND A TOTAL OF         14 INNER ITERATIONS.
    ------------------------------------------------

 NO OUTPUT CONTROL FOR STRESS PERIOD   12   TIME STEP   28
 
 SOLVING FOR HEAD 
                                                   Max.-Head-Change                         Max.-Flux-Residual
  Residual-Control   Outer-Iter.   Inner-Iter.     Column Row Layer    Maximum-Head-Change  Column Row Layer    Maximum-Flux-Residual          L2-NORM 
          0                 1           2            10   10     1       0.4710056056E-02       2    1    1         0.2318867576E+00      0.1266635028E+01
          0                 2           2            10   10     1       0.2116728451E-02      10   10    1         0.5497655811E-01      0.3297911963E+00
          0                 3           2            10   10     1       0.9512694929E-03      10   10    1         0.2470680138E-01      0.1259837421E+00
          0                 4           2            10   10     1       0.4275051416E-03      10   10    1         0.1110337067E-01      0.5486928003E-01
          0                 5           2            10   10     1       0.1921226046E-03      10   10    1         0.4989907535E-02      0.2447360479E-01
          0                 6           1            10   10     1       0.8634057590E-04      10   10    1         0.2242484792E-02      0.1095680298E-01
          0                 7           1            10   10     1       0.3880170128E-04      10   10    1         0.1007780300E-02      0.4908295760E-02
          0                 8           1            10   10     1       0.1743756911E-04      10   10    1         0.4528992203E-03      0.2199042440E-02
          0                 9           1            10   10     1       0.7836469955E-05      10   10    1         0.2035338454E-03      0.9852840113E-03

    ------------------------------------------------
       NWT REQUIRED            9 OUTER ITERATIONS 
       AND A TOTAL OF         14 INNER ITERATIONS.
    ------------------------------------------------

 NO OUTPUT CONTROL FOR STRESS PERIOD   12   TIME STEP   29
 
 SOLVING FOR HEAD 
                                                   Max.-Head-Change                         Max.-Flux-Residual
  Residual-Control   Outer-Iter.   Inner-Iter.     Column Row Layer    Maximum-Head-Change  Column Row Layer    Maximum-Flux-Residual          L2-NORM 
          0                 1           2            10   10     1       0.4707595362E-02       2    1    1         0.2314656063E+00      0.1254991448E+01
          0                 2           2            10   10     1       0.2115619259E-02      10   10    1         0.5494782065E-01      0.3282931559E+00
          0                 3           2            10   10     1       0.9507695187E-03      10   10    1         0.2469384761E-01      0.1257486109E+00
          0                 4           2            10   10     1       0.4272797793E-03      10   10    1         0.1109753171E-01      0.5479913901E-01
          0                 5           2            10   10     1       0.1920210252E-03      10   10    1         0.4987275648E-02      0.2444468927E-01
          0                 6           1            10   10     1       0.8629479108E-04      10   10    1         0.2241298501E-02      0.1094401939E-01
          0                 7           1            10   10     1       0.3878106487E-04      10   10    1         0.1007245600E-02      0.4902581306E-02
          0                 8           1            10   10     1       0.1742826798E-04      10   10    1         0.4526582188E-03      0.2196488212E-02
          0                 9           1            10   10     1       0.7832277844E-05      10   10    1         0.2034252225E-03      0.9841363312E-03

    ------------------------------------------------
       NWT REQUIRED            9 OUTER ITERATIONS 
       AND A TOTAL OF         14 INNER ITERATIONS.
    ------------------------------------------------

 NO OUTPUT CONTROL FOR STRESS PERIOD   12   TIME STEP   30



 STREAM LISTING     PERIOD     12   STEP       30

 LAYER ROW COL. STREAM  RCH.  FLOW INTO     FLOW TO   FLOW OUT OF   OVRLND.     DIRECT     STREAM       STREAM     STREAM     STREAM   STREAMBED  STREAMBED
                SEG.NO.  NO.  STRM. RCH.    AQUIFER    STRM. RCH.    RUNOFF     PRECIP       ET          HEAD       DEPTH      WIDTH   CONDCTNC.   GRADIENT

   1    1    1     1     1    3.3000E+00  8.1313E-02   3.2187E+00  0.000E+00  0.000E+00  0.000E+00  1.09370E+03  6.519E-01  4.948E+00  2.227E-02  1.217E+00
   1    2    2     1     2    3.2187E+00  1.2488E-01   3.0938E+00  0.000E+00  0.000E+00  0.000E+00  1.08870E+03  6.446E-01  4.895E+00  3.426E-02  1.215E+00
   1    3    3     1     3    3.0938E+00  1.0547E-01   2.9883E+00  0.000E+00  0.000E+00  0.000E+00  1.08306E+03  6.363E-01  4.834E+00  2.901E-02  1.212E+00
   1    3    4     1     4    2.9883E+00  9.6268E-02   2.8921E+00  0.000E+00  0.000E+00  0.000E+00  1.07804E+03  6.289E-01  4.780E+00  2.653E-02  1.210E+00
   1    4    5     2     1    8.9207E-01  2.4566E-01   6.4640E-01  0.000E+00  0.000E+00  0.000E+00  1.07208E+03  1.495E-01  1.200E+01  7.800E-02  1.050E+00
   1    5    6     2     2    6.4640E-01  1.8736E-01   4.5904E-01  0.000E+00  0.000E+00  0.000E+00  1.06663E+03  1.226E-01  1.200E+01  6.000E-02  1.041E+00
   1    6    6     2     3    4.5904E-01  1.8575E-01   2.7329E-01  0.000E+00  0.000E+00  0.000E+00  1.06189E+03  9.580E-02  1.200E+01  6.000E-02  1.032E+00
   1    7    6     2     4    2.7329E-01  1.8377E-01   8.9523E-02  0.000E+00  0.000E+00  0.000E+00  1.05714E+03  6.285E-02  1.200E+01  6.000E-02  1.021E+00
   1    8    6     2     5    8.9523E-02  8.9523E-02   0.0000E+00  0.000E+00  0.000E+00  0.000E+00  1.05237E+03  9.257E-03  1.200E+01  6.000E-02  1.003E+00
   1    3    5     3     1    2.0000E+00  2.8252E-01   1.7175E+00  0.000E+00  0.000E+00  0.000E+00  1.07555E+03  1.909E+00  9.636E+00  7.227E-02  1.955E+00
   1    3    6     3     2    1.7175E+00  2.4905E-01   1.4684E+00  0.000E+00  0.000E+00  0.000E+00  1.07264E+03  1.727E+00  8.909E+00  6.682E-02  1.864E+00
   1    3    7     3     3    1.4684E+00  1.9718E-01   1.2712E+00  0.000E+00  0.000E+00  0.000E+00  1.06987E+03  1.555E+00  8.218E+00  5.547E-02  1.777E+00
   1    4    8     3     4    1.2712E+00  2.2567E-01   1.0456E+00  0.000E+00  0.000E+00  0.000E+00  1.06682E+03  1.364E+00  7.455E+00  6.709E-02  1.682E+00
   1    5    8     3     5    1.0456E+00  1.5790E-01   8.8768E-01  0.000E+00  0.000E+00  0.000E+00  1.06362E+03  1.164E+00  6.655E+00  4.991E-02  1.582E+00
   1    6    8     3     6    8.8768E-01  5.5980E-02   8.3170E-01  0.000E+00  0.000E+00  0.000E+00  1.06158E+03  1.036E+00  6.145E+00  1.844E-02  1.518E+00
   1    5   10     4     1    1.0000E+01  9.0919E-02   9.9091E+00  0.000E+00  0.000E+00  0.000E+00  1.07836E+03  6.368E-01  1.000E+01  2.500E-02  1.212E+00
   1    5    9     4     2    9.9091E+00  1.8158E-01   9.7275E+00  0.000E+00  0.000E+00  0.000E+00  1.07154E+03  6.315E-01  1.000E+01  5.000E-02  1.211E+00
   1    6    8     4     3    9.7275E+00  1.2689E-01   9.6006E+00  0.000E+00  0.000E+00  0.000E+00  1.06381E+03  6.256E-01  1.000E+01  3.500E-02  1.209E+00
   1    6    8     5     1    1.0432E+01  2.2686E-01   1.0205E+01  0.000E+00  0.000E+00  0.000E+00  1.05868E+03  6.790E-01  1.542E+01  6.166E-02  1.226E+00
   1    7    7     5     2    1.0205E+01  2.7894E-01   9.9265E+00  0.000E+00  0.000E+00  0.000E+00  1.05417E+03  6.732E-01  1.519E+01  7.594E-02  1.224E+00
   1    8    7     5     3    9.9265E+00  1.9221E-01   9.7343E+00  0.000E+00  0.000E+00  0.000E+00  1.04992E+03  6.676E-01  1.497E+01  5.241E-02  1.223E+00
   1    8    6     5     4    9.7343E+00  1.3577E-01   9.5985E+00  0.000E+00  0.000E+00  0.000E+00  1.04691E+03  6.637E-01  1.482E+01  3.706E-02  1.221E+00
   1    9    6     6     1    9.5985E+00  2.2097E-01   9.3776E+00  0.000E+00  0.000E+00  0.000E+00  1.04341E+03  6.828E-01  1.200E+01  6.000E-02  1.228E+00
   1   10    7     6     2    9.3776E+00  2.2039E-01   9.1572E+00  0.000E+00  0.000E+00  0.000E+00  1.03885E+03  6.732E-01  1.200E+01  6.000E-02  1.224E+00
   1   11    7     6     3    9.1572E+00  2.1981E-01   8.9374E+00  0.000E+00  0.000E+00  0.000E+00  1.03430E+03  6.636E-01  1.200E+01  6.000E-02  1.221E+00
   1   12    7     6     4    8.9374E+00  2.1923E-01   8.7181E+00  0.000E+00  0.000E+00  0.000E+00  1.02974E+03  6.539E-01  1.200E+01  6.000E-02  1.218E+00
   1   13    7     6     5    8.7181E+00 -1.8822E-01   8.9063E+00  0.000E+00  0.000E+00  0.000E+00  1.02656E+03  6.532E-01  1.200E+01  2.400E-01 -2.614E-01
   1   14    9     7     1    1.5000E+02  1.1551E+00   1.4884E+02  0.000E+00  0.000E+00  0.000E+00  1.03987E+03  2.288E+00  5.530E+01  5.593E-01  6.884E-01
   1   13    8     7     2    1.4884E+02  1.6352E+00   1.4721E+02  0.000E+00  0.000E+00  0.000E+00  1.03478E+03  2.281E+00  5.526E+01  6.149E-01  8.865E-01
   1   13    7     7     3    1.4721E+02  1.3103E+00   1.4590E+02  0.000E+00  0.000E+00  0.000E+00  1.02969E+03  2.273E+00  5.523E+01  5.586E-01  7.819E-01
   1   13    6     8     1    1.5481E+02  6.9224E-01   1.5411E+02  0.000E+00  0.000E+00  0.000E+00  1.02472E+03  2.848E+00  4.130E+01  4.208E-01  5.483E-01
   1   13    5     8     2    1.5411E+02 -2.1823E-01   1.5433E+02  0.000E+00  0.000E+00  0.000E+00  1.01847E+03  2.846E+00  4.127E+01  4.206E+00 -1.730E-02
   1   13    4     8     3    1.5433E+02 -3.2961E+00   1.5763E+02  0.000E+00  0.000E+00  0.000E+00  1.01223E+03  2.858E+00  4.145E+01  4.224E+00 -2.601E-01
   1   13    3     8     4    1.5763E+02 -4.2295E+00   1.6186E+02  0.000E+00  0.000E+00  0.000E+00  1.00601E+03  2.884E+00  4.182E+01  4.262E+00 -3.308E-01
   1   13    2     8     5    1.6186E+02 -2.8250E+00   1.6468E+02  0.000E+00  0.000E+00  0.000E+00  9.99783E+02  2.908E+00  4.216E+01  4.297E+00 -2.192E-01
   1   13    1     8     6    1.6468E+02 -2.0638E+00   1.6675E+02  0.000E+00  0.000E+00  0.000E+00  9.94799E+02  2.924E+00  4.240E+01  2.592E+00 -2.654E-01
   1    6    8     9     1    0.0000E+00  0.0000E+00   0.0000E+00  0.000E+00  0.000E+00  0.000E+00  1.07850E+03  0.000E+00  4.000E+00  0.000E+00  1.000E+00





UNSATURATED ZONE PACKAGE VOLUMETRIC BUDGET FOR  TIME STEP    30 STRESS PERIOD   12
  ------------------------------------------------------------------------------



     CUMULATIVE VOLUMES      L**3       RATES FOR THIS TIME STEP      L**3/T
     ------------------                 ------------------------

           IN:                                      IN:
           ---                                      ---
        INFILTRATION =    26615969.2213          INFILTRATION =       0.0000E+00

          OUT:                                     OUT:
          ----                                     ----
              UZF ET =   553806002.0037                UZF ET =           0.0025
        UZF RECHARGE =   713842246.0025          UZF RECHARGE =          21.7760

            IN - OUT = -1241032278.7849              IN - OUT =         -21.7785

          STORAGE:                                 STORAGE:
          --------                                 --------
      STORAGE CHANGE = -1241006809.5801        STORAGE CHANGE =         -21.7785

 PERCENT DISCREPANCY IS DIFFERENCE BETWEEN IN-OUT MINUS CHANGE IN STORAGE
 DIVIDED BY THE AVERAGE OF IN AND OUT TIMES 100

 PERCENT DISCREPANCY =          -0.00     PERCENT DISCREPANCY =           0.00






1
  VOLUMETRIC BUDGET FOR ENTIRE MODEL AT END OF TIME STEP   30, STRESS PERIOD  12
  ------------------------------------------------------------------------------

     CUMULATIVE VOLUMES      L**3       RATES FOR THIS TIME STEP      L**3/T
     ------------------                 ------------------------

           IN:                                      IN:
           ---                                      ---
             STORAGE     =    31694930.0000               STORAGE     =       2.6094E-02
       CONSTANT HEAD     =           0.0000         CONSTANT HEAD     =           0.0000
               WELLS     =           0.0000                 WELLS     =           0.0000
     HEAD DEP BOUNDS     =     8007325.5000       HEAD DEP BOUNDS     =           0.2735
      STREAM LEAKAGE     =   332658208.0000        STREAM LEAKAGE     =           9.3748
        UZF RECHARGE     =   713842688.0000          UZF RECHARGE     =          21.7760
               GW ET     =           0.0000                 GW ET     =           0.0000
     SURFACE LEAKAGE     =           0.0000       SURFACE LEAKAGE     =           0.0000
    SUPPLEMENTARY WELLS  =           0.0000      SUPPLEMENTARY WELLS  =           0.0000

                TOTAL IN =  1086203136.0000                  TOTAL IN =          31.4503

          OUT:                                     OUT:
          ----                                     ----
             STORAGE     =   697831936.0000               STORAGE     =          18.3202
       CONSTANT HEAD     =           0.0000         CONSTANT HEAD     =           0.0000
               WELLS     =           0.0000                 WELLS     =           0.0000
     HEAD DEP BOUNDS     =     8339115.5000       HEAD DEP BOUNDS     =           0.2886
      STREAM LEAKAGE     =   296147264.0000        STREAM LEAKAGE     =          12.8209
        UZF RECHARGE     =           0.0000          UZF RECHARGE     =           0.0000
               GW ET     =    83732920.0000                 GW ET     =       1.7500E-02
     SURFACE LEAKAGE     =           0.0000       SURFACE LEAKAGE     =           0.0000
    SUPPLEMENTARY WELLS  =       36404.7930      SUPPLEMENTARY WELLS  =           0.0000

               TOTAL OUT =  1086087552.0000                 TOTAL OUT =          31.4472

                IN - OUT =      115584.0000                  IN - OUT =       3.1071E-03

     PERCENT DISCREPANCY =           0.01         PERCENT DISCREPANCY =           0.01






         TIME SUMMARY AT END OF TIME STEP   30 IN STRESS PERIOD   12
                    SECONDS     MINUTES      HOURS       DAYS        YEARS
                    -----------------------------------------------------------
   TIME STEP LENGTH  87600.      1460.0      24.333      1.0139     2.77588E-03
 STRESS PERIOD TIME 2.62800E+06  43800.      730.00      30.417     8.32763E-02
         TOTAL TIME 2.89944E+07 4.83240E+05  8054.0      335.58     0.91878    
1
1
                            STRESS PERIOD NO.   13, LENGTH =   2628000.    
                            -----------------------------------------------

                              NUMBER OF TIME STEPS =    30

                               MULTIPLIER FOR DELT =     1.000

                            INITIAL TIME STEP SIZE =   87600.00    

 WELL NO.  LAYER   ROW   COL   STRESS RATE         
 --------------------------------------------------
      1      1      6      4       0.000    
      2      1      6      7       0.000    
      3      1      7      4       0.000    
      4      1      7      5       0.000    
      5      1      8      4       0.000    
      6      1      8      5       0.000    
      7      1      9      4       0.000    
      8      1      9      5       0.000    
      9      1     10      4       0.000    
     10      1     10      5       0.000    

     10 WELLS

 REUSING NON-PARAMETER GHB CELLS FROM LAST STRESS PERIOD

      2 GHB CELLS

 REUSING STREAM SEGMENT DATA FROM LAST STRESS PERIOD



            AREAL INFILTRATION RATE
 READING ON UNIT   19 WITH FORMAT: (10F4.0)            

            1           2           3           4           5           6           7           8           9          10
 ........................................................................................................................
   1    0.000       0.000       0.000       0.000       0.000       0.000       0.000       0.000       0.000       0.000    
   2    0.000       0.000       0.000       0.000       0.000       0.000       0.000       0.000       0.000       0.000    
   3    0.000       0.000       0.000       0.000       0.000       0.000       0.000       0.000       0.000       0.000    
   4    0.000       0.000       0.000       0.000       0.000       0.000       0.000       0.000       0.000       0.000    
   5    0.000       0.000       0.000       0.000       0.000       0.000       0.000       0.000       0.000       0.000    
   6    0.000       0.000       0.000       0.000       0.000       0.000       0.000       0.000       0.000       0.000    
   7    0.000       0.000       0.000       0.000       0.000       0.000       0.000       0.000       0.000       0.000    
   8    0.000       0.000       0.000       0.000       0.000       0.000       0.000       0.000       0.000       0.000    
   9    0.000       0.000       0.000       0.000       0.000       0.000       0.000       0.000       0.000       0.000    
  10    0.000       0.000       0.000       0.000       0.000       0.000       0.000       0.000       0.000       0.000    
  11    0.000       0.000       0.000       0.000       0.000       0.000       0.000       0.000       0.000       0.000    
  12    0.000       0.000       0.000       0.000       0.000       0.000       0.000       0.000       0.000       0.000    
  13    0.000       0.000       0.000       0.000       0.000       0.000       0.000       0.000       0.000       0.000    
  14    0.000       0.000       0.000       0.000       0.000       0.000       0.000       0.000       0.000       0.000    
  15    0.000       0.000       0.000       0.000       0.000       0.000       0.000       0.000       0.000       0.000    

                  ET RATE =  1.000000E-10

 USING ET EXTINCTION DEPTH FROM PREVIOUS STRESS PERIOD. CURRENT PERIOD IS:      13

 USING EXTINCTION WATER CONTENT FROM PREVIOUS STRESS PERIOD. CURRENT PERIOD IS:      13

 PROCESSING AGO STRESS PERIOD DATA

 READING AGO STRESS PERIOD DATA

 READING IRRIGATION STREAM

 READING IRRIGATION WELL

 READING SUPPLEMENTAL WEL

 END PROCESSING AGO STRESS PERIOD DATA OPTIONS
 
 SOLVING FOR HEAD 
                                                   Max.-Head-Change                         Max.-Flux-Residual
  Residual-Control   Outer-Iter.   Inner-Iter.     Column Row Layer    Maximum-Head-Change  Column Row Layer    Maximum-Flux-Residual          L2-NORM 
          0                 1           2            10   10     1       0.4705128839E-02       2    1    1         0.2310406645E+00      0.1252363322E+01
          0                 2           2            10   10     1       0.2114507579E-02      10   10    1         0.5491901577E-01      0.3278824878E+00
          0                 3           2            10   10     1       0.9502684845E-03      10   10    1         0.2468086508E-01      0.1256041109E+00
          0                 4           2            10   10     1       0.4270539673E-03      10   10    1         0.1109168051E-01      0.5473574781E-01
          0                 5           2            10   10     1       0.1919192551E-03      10   10    1         0.4984638562E-02      0.2441636895E-01
          0                 6           1            10   10     1       0.8624892521E-04      10   10    1         0.2240110010E-02      0.1093133478E-01
          0                 7           1            10   10     1       0.3876039494E-04      10   10    1         0.1006709982E-02      0.4896900691E-02
          0                 8           1            10   10     1       0.1741895285E-04      10   10    1         0.4524168319E-03      0.2193940031E-02
          0                 9           1            10   10     1       0.7828079730E-05      10   10    1         0.2033164362E-03      0.9829977626E-03

    ------------------------------------------------
       NWT REQUIRED            9 OUTER ITERATIONS 
       AND A TOTAL OF         14 INNER ITERATIONS.
    ------------------------------------------------

 NO OUTPUT CONTROL FOR STRESS PERIOD   13   TIME STEP    1
 
 SOLVING FOR HEAD 
                                                   Max.-Head-Change                         Max.-Flux-Residual
  Residual-Control   Outer-Iter.   Inner-Iter.     Column Row Layer    Maximum-Head-Change  Column Row Layer    Maximum-Flux-Residual          L2-NORM 
          0                 1           2            10   10     1       0.4702656577E-02       2    1    1         0.2306194225E+00      0.1250160861E+01
          0                 2           2            10   10     1       0.2113393234E-02      10   10    1         0.5489014351E-01      0.3275134194E+00
          0                 3           2            10   10     1       0.9497662145E-03      10   10    1         0.2466785126E-01      0.1254586475E+00
          0                 4           2            10   10     1       0.4268275830E-03      10   10    1         0.1108581480E-01      0.5467036203E-01
          0                 5           2            10   10     1       0.1918172203E-03      10   10    1         0.4981994764E-02      0.2438696533E-01
          0                 6           1            10   10     1       0.8620293779E-04      10   10    1         0.2238918418E-02      0.1091814596E-01
          0                 7           1            10   10     1       0.3873966824E-04      10   10    1         0.1006172923E-02      0.4890984487E-02
          0                 8           1            10   10     1       0.1740961145E-04      10   10    1         0.4521747815E-03      0.2191286284E-02
          0                 9           1            10   10     1       0.7823870111E-05      10   10    1         0.2032073484E-03      0.9818082779E-03

    ------------------------------------------------
       NWT REQUIRED            9 OUTER ITERATIONS 
       AND A TOTAL OF         14 INNER ITERATIONS.
    ------------------------------------------------

 NO OUTPUT CONTROL FOR STRESS PERIOD   13   TIME STEP    2
 
 SOLVING FOR HEAD 
                                                   Max.-Head-Change                         Max.-Flux-Residual
  Residual-Control   Outer-Iter.   Inner-Iter.     Column Row Layer    Maximum-Head-Change  Column Row Layer    Maximum-Flux-Residual          L2-NORM 
          0                 1           2            10   10     1       0.4700178674E-02       2    1    1         0.2302030204E+00      0.1248186766E+01
          0                 2           2            10   10     1       0.2112276485E-02      10   10    1         0.5486120602E-01      0.3271518012E+00
          0                 3           2            10   10     1       0.9492629233E-03      10   10    1         0.2465480967E-01      0.1253082685E+00
          0                 4           2            10   10     1       0.4266007653E-03      10   10    1         0.1107993728E-01      0.5460249690E-01
          0                 5           2            10   10     1       0.1917150026E-03      10   10    1         0.4979345960E-02      0.2435655959E-01
          0                 6           1            10   10     1       0.8615687284E-04      10   10    1         0.2237724707E-02      0.1090455314E-01
          0                 7           1            10   10     1       0.3871890927E-04      10   10    1         0.1005634975E-02      0.4884910120E-02
          0                 8           1            10   10     1       0.1740025680E-04      10   10    1         0.4519323579E-03      0.2188571932E-02
          0                 9           1            10   10     1       0.7819654490E-05      10   10    1         0.2030981010E-03      0.9805949575E-03

    ------------------------------------------------
       NWT REQUIRED            9 OUTER ITERATIONS 
       AND A TOTAL OF         14 INNER ITERATIONS.
    ------------------------------------------------

 NO OUTPUT CONTROL FOR STRESS PERIOD   13   TIME STEP    3
 
 SOLVING FOR HEAD 
                                                   Max.-Head-Change                         Max.-Flux-Residual
  Residual-Control   Outer-Iter.   Inner-Iter.     Column Row Layer    Maximum-Head-Change  Column Row Layer    Maximum-Flux-Residual          L2-NORM 
          0                 1           2            10   10     1       0.4697695221E-02       2    1    1         0.2297878679E+00      0.1246323365E+01
          0                 2           2            10   10     1       0.2111157156E-02      10   10    1         0.5483220335E-01      0.3268203316E+00
          0                 3           2            10   10     1       0.9487584346E-03      10   10    1         0.2464173778E-01      0.1251728032E+00
          0                 4           2            10   10     1       0.4263733931E-03      10   10    1         0.1107404572E-01      0.5454118504E-01
          0                 5           2            10   10     1       0.1916125281E-03      10   10    1         0.4976690653E-02      0.2432894663E-01
          0                 6           1            10   10     1       0.8611068959E-04      10   10    1         0.2236527989E-02      0.1089214887E-01
          0                 7           1            10   10     1       0.3869809553E-04      10   10    1         0.1005095636E-02      0.4879342921E-02
          0                 8           1            10   10     1       0.1739087688E-04      10   10    1         0.4516892936E-03      0.2186074407E-02
          0                 9           1            10   10     1       0.7815427113E-05      10   10    1         0.2029885614E-03      0.9794745956E-03

    ------------------------------------------------
       NWT REQUIRED            9 OUTER ITERATIONS 
       AND A TOTAL OF         14 INNER ITERATIONS.
    ------------------------------------------------

 NO OUTPUT CONTROL FOR STRESS PERIOD   13   TIME STEP    4
 
 SOLVING FOR HEAD 
                                                   Max.-Head-Change                         Max.-Flux-Residual
  Residual-Control   Outer-Iter.   Inner-Iter.     Column Row Layer    Maximum-Head-Change  Column Row Layer    Maximum-Flux-Residual          L2-NORM 
          0                 1           2            10   10     1       0.4695206122E-02       2    1    1         0.2293774661E+00      0.1244425878E+01
          0                 2           2            10   10     1       0.2110035315E-02      10   10    1         0.5480313489E-01      0.3264881645E+00
          0                 3           2            10   10     1       0.9482528283E-03      10   10    1         0.2462863662E-01      0.1250383500E+00
          0                 4           2            10   10     1       0.4261455239E-03      10   10    1         0.1106814113E-01      0.5448040777E-01
          0                 5           2            10   10     1       0.1915098328E-03      10   10    1         0.4974029552E-02      0.2430158775E-01
          0                 6           1            10   10     1       0.8606440779E-04      10   10    1         0.2235328695E-02      0.1087984301E-01
          0                 7           1            10   10     1       0.3867723827E-04      10   10    1         0.1004555156E-02      0.4873817181E-02
          0                 8           1            10   10     1       0.1738147746E-04      10   10    1         0.4514457211E-03      0.2183596099E-02
          0                 9           1            10   10     1       0.7811191482E-05      10   10    1         0.2028787955E-03      0.9783684834E-03

    ------------------------------------------------
       NWT REQUIRED            9 OUTER ITERATIONS 
       AND A TOTAL OF         14 INNER ITERATIONS.
    ------------------------------------------------

 NO OUTPUT CONTROL FOR STRESS PERIOD   13   TIME STEP    5
 
 SOLVING FOR HEAD 
                                                   Max.-Head-Change                         Max.-Flux-Residual
  Residual-Control   Outer-Iter.   Inner-Iter.     Column Row Layer    Maximum-Head-Change  Column Row Layer    Maximum-Flux-Residual          L2-NORM 
          0                 1           2            10   10     1       0.4692711478E-02       2    1    1         0.2289705945E+00      0.1242742317E+01
          0                 2           2            10   10     1       0.2108911006E-02      10   10    1         0.5477400182E-01      0.3261682282E+00
          0                 3           2            10   10     1       0.9477461231E-03      10   10    1         0.2461550671E-01      0.1249023144E+00
          0                 4           2            10   10     1       0.4259171653E-03      10   10    1         0.1106222375E-01      0.5441869534E-01
          0                 5           2            10   10     1       0.1914069196E-03      10   10    1         0.4971362753E-02      0.2427384164E-01
          0                 6           1            10   10     1       0.8601802920E-04      10   10    1         0.2234126864E-02      0.1086742000E-01
          0                 7           1            10   10     1       0.3865633774E-04      10   10    1         0.1004013542E-02      0.4868253311E-02
          0                 8           1            10   10     1       0.1737205878E-04      10   10    1         0.4512016442E-03      0.2181102641E-02
          0                 9           1            10   10     1       0.7806946848E-05      10   10    1         0.2027688018E-03      0.9772460767E-03

    ------------------------------------------------
       NWT REQUIRED            9 OUTER ITERATIONS 
       AND A TOTAL OF         14 INNER ITERATIONS.
    ------------------------------------------------

 NO OUTPUT CONTROL FOR STRESS PERIOD   13   TIME STEP    6
 
 SOLVING FOR HEAD 
                                                   Max.-Head-Change                         Max.-Flux-Residual
  Residual-Control   Outer-Iter.   Inner-Iter.     Column Row Layer    Maximum-Head-Change  Column Row Layer    Maximum-Flux-Residual          L2-NORM 
          0                 1           2            10   10     1       0.4690211386E-02       2    1    1         0.2285671991E+00      0.1241194574E+01
          0                 2           2            10   10     1       0.2107784273E-02      10   10    1         0.5474480528E-01      0.3258611233E+00
          0                 3           2            10   10     1       0.9472383402E-03      10   10    1         0.2460234855E-01      0.1247684009E+00
          0                 4           2            10   10     1       0.4256883277E-03      10   10    1         0.1105629380E-01      0.5435771652E-01
          0                 5           2            10   10     1       0.1913037933E-03      10   10    1         0.4968690368E-02      0.2424642434E-01
          0                 6           1            10   10     1       0.8597155582E-04      10   10    1         0.2232922550E-02      0.1085512977E-01
          0                 7           1            10   10     1       0.3863539494E-04      10   10    1         0.1003470825E-02      0.4862747471E-02
          0                 8           1            10   10     1       0.1736262134E-04      10   10    1         0.4509570782E-03      0.2178636294E-02
          0                 9           1            10   10     1       0.7802694460E-05      10   10    1         0.2026585976E-03      0.9761409180E-03

    ------------------------------------------------
       NWT REQUIRED            9 OUTER ITERATIONS 
       AND A TOTAL OF         14 INNER ITERATIONS.
    ------------------------------------------------

 NO OUTPUT CONTROL FOR STRESS PERIOD   13   TIME STEP    7
 
 SOLVING FOR HEAD 
                                                   Max.-Head-Change                         Max.-Flux-Residual
  Residual-Control   Outer-Iter.   Inner-Iter.     Column Row Layer    Maximum-Head-Change  Column Row Layer    Maximum-Flux-Residual          L2-NORM 
          0                 1           2            10   10     1       0.4687597347E-02       2    1    1         0.2281672455E+00      0.1239396024E+01
          0                 2           2            10   10     1       0.2106606405E-02      10   10    1         0.5471427908E-01      0.3255169314E+00
          0                 3           2            10   10     1       0.9467076093E-03      10   10    1         0.2458859369E-01      0.1246313495E+00
          0                 4           2            10   10     1       0.4254491913E-03      10   10    1         0.1105009607E-01      0.5429639231E-01
          0                 5           2            10   10     1       0.1911960452E-03      10   10    1         0.4965897810E-02      0.2421892376E-01
          0                 6           1            10   10     1       0.8592300826E-04      10   10    1         0.2231664304E-02      0.1084280715E-01
          0                 7           1            10   10     1       0.3861352148E-04      10   10    1         0.1002903904E-02      0.4857281481E-02
          0                 8           1            10   10     1       0.1735276646E-04      10   10    1         0.4507016482E-03      0.2176302008E-02
          0                 9           1            10   10     1       0.7798253988E-05      10   10    1         0.2025435098E-03      0.9750353011E-03

    ------------------------------------------------
       NWT REQUIRED            9 OUTER ITERATIONS 
       AND A TOTAL OF         14 INNER ITERATIONS.
    ------------------------------------------------

 NO OUTPUT CONTROL FOR STRESS PERIOD   13   TIME STEP    8
 
 SOLVING FOR HEAD 
                                                   Max.-Head-Change                         Max.-Flux-Residual
  Residual-Control   Outer-Iter.   Inner-Iter.     Column Row Layer    Maximum-Head-Change  Column Row Layer    Maximum-Flux-Residual          L2-NORM 
          0                 1           2            10   10     1       0.4685087068E-02       2    1    1         0.2277695071E+00      0.1237268463E+01
          0                 2           2            10   10     1       0.2105475141E-02      10   10    1         0.5468496385E-01      0.3251336707E+00
          0                 3           2            10   10     1       0.9461978107E-03      10   10    1         0.2457538275E-01      0.1244905077E+00
          0                 4           2            10   10     1       0.4252194573E-03      10   10    1         0.1104414264E-01      0.5423443930E-01
          0                 5           2            10   10     1       0.1910925200E-03      10   10    1         0.4963214979E-02      0.2419119954E-01
          0                 6           1            10   10     1       0.8587635780E-04      10   10    1         0.2230455348E-02      0.1083038640E-01
          0                 7           1            10   10     1       0.3859249990E-04      10   10    1         0.1002359122E-02      0.4851662785E-02
          0                 8           1            10   10     1       0.1734329401E-04      10   10    1         0.4504561607E-03      0.2173839930E-02
          0                 9           1            10   10     1       0.7793985843E-05      10   10    1         0.2024328905E-03      0.9743513859E-03

    ------------------------------------------------
       NWT REQUIRED            9 OUTER ITERATIONS 
       AND A TOTAL OF         14 INNER ITERATIONS.
    ------------------------------------------------

 NO OUTPUT CONTROL FOR STRESS PERIOD   13   TIME STEP    9
 
 SOLVING FOR HEAD 
                                                   Max.-Head-Change                         Max.-Flux-Residual
  Residual-Control   Outer-Iter.   Inner-Iter.     Column Row Layer    Maximum-Head-Change  Column Row Layer    Maximum-Flux-Residual          L2-NORM 
          0                 1           2            10   10     1       0.4682571437E-02       2    1    1         0.2273763177E+00      0.1235190358E+01
          0                 2           2            10   10     1       0.2104341388E-02      10   10    1         0.5465558575E-01      0.3247694087E+00
          0                 3           2            10   10     1       0.9456868566E-03      10   10    1         0.2456214257E-01      0.1243547502E+00
          0                 4           2            10   10     1       0.4249891870E-03      10   10    1         0.1103817565E-01      0.5417436184E-01
          0                 5           2            10   10     1       0.1909887469E-03      10   10    1         0.4960525866E-02      0.2416423780E-01
          0                 6           1            10   10     1       0.8582959229E-04      10   10    1         0.2229243481E-02      0.1081827297E-01
          0                 7           1            10   10     1       0.3857142554E-04      10   10    1         0.1001812998E-02      0.4846221085E-02
          0                 8           1            10   10     1       0.1733379704E-04      10   10    1         0.4502100556E-03      0.2171227083E-02
          0                 9           1            10   10     1       0.7789706444E-05      10   10    1         0.2023219890E-03      0.9728201834E-03

    ------------------------------------------------
       NWT REQUIRED            9 OUTER ITERATIONS 
       AND A TOTAL OF         14 INNER ITERATIONS.
    ------------------------------------------------

 NO OUTPUT CONTROL FOR STRESS PERIOD   13   TIME STEP   10
 
 SOLVING FOR HEAD 
                                                   Max.-Head-Change                         Max.-Flux-Residual
  Residual-Control   Outer-Iter.   Inner-Iter.     Column Row Layer    Maximum-Head-Change  Column Row Layer    Maximum-Flux-Residual          L2-NORM 
          0                 1           2            10   10     1       0.4679941923E-02       2    1    1         0.2269852612E+00      0.1233831378E+01
          0                 2           2            10   10     1       0.2103156639E-02      10   10    1         0.5462487927E-01      0.3244677343E+00
          0                 3           2            10   10     1       0.9451530666E-03      10   10    1         0.2454830756E-01      0.1242200080E+00
          0                 4           2            10   10     1       0.4247486915E-03      10   10    1         0.1103194228E-01      0.5411315304E-01
          0                 5           2            10   10     1       0.1908803946E-03      10   10    1         0.4957717462E-02      0.2413678796E-01
          0                 6           1            10   10     1       0.8578077636E-04      10   10    1         0.2227978194E-02      0.1080598855E-01
          0                 7           1            10   10     1       0.3854943278E-04      10   10    1         0.1001242949E-02      0.4840723544E-02
          0                 8           1            10   10     1       0.1732388889E-04      10   10    1         0.4499532382E-03      0.2168765795E-02
          0                 9           1            10   10     1       0.7785242712E-05      10   10    1         0.2022062923E-03      0.9717176314E-03

    ------------------------------------------------
       NWT REQUIRED            9 OUTER ITERATIONS 
       AND A TOTAL OF         14 INNER ITERATIONS.
    ------------------------------------------------

 NO OUTPUT CONTROL FOR STRESS PERIOD   13   TIME STEP   11
 
 SOLVING FOR HEAD 
                                                   Max.-Head-Change                         Max.-Flux-Residual
  Residual-Control   Outer-Iter.   Inner-Iter.     Column Row Layer    Maximum-Head-Change  Column Row Layer    Maximum-Flux-Residual          L2-NORM 
          0                 1           2            10   10     1       0.4677416306E-02       2    1    1         0.2265974801E+00      0.1231709233E+01
          0                 2           2            10   10     1       0.2102018448E-02      10   10    1         0.5459538486E-01      0.3240552662E+00
          0                 3           2            10   10     1       0.9446401404E-03      10   10    1         0.2453501569E-01      0.1240767715E+00
          0                 4           2            10   10     1       0.4245175449E-03      10   10    1         0.1102595231E-01      0.5405165311E-01
          0                 5           2            10   10     1       0.1907762321E-03      10   10    1         0.4955018143E-02      0.2410942942E-01
          0                 6           1            10   10     1       0.8573383803E-04      10   10    1         0.2226761793E-02      0.1079374846E-01
          0                 7           1            10   10     1       0.3852828189E-04      10   10    1         0.1000694810E-02      0.4835242484E-02
          0                 8           1            10   10     1       0.1731435766E-04      10   10    1         0.4497062304E-03      0.2166311047E-02
          0                 9           1            10   10     1       0.7780948055E-05      10   10    1         0.2020949896E-03      0.9706182450E-03

    ------------------------------------------------
       NWT REQUIRED            9 OUTER ITERATIONS 
       AND A TOTAL OF         14 INNER ITERATIONS.
    ------------------------------------------------

 NO OUTPUT CONTROL FOR STRESS PERIOD   13   TIME STEP   12
 
 SOLVING FOR HEAD 
                                                   Max.-Head-Change                         Max.-Flux-Residual
  Residual-Control   Outer-Iter.   Inner-Iter.     Column Row Layer    Maximum-Head-Change  Column Row Layer    Maximum-Flux-Residual          L2-NORM 
          0                 1           2            10   10     1       0.4674776983E-02       2    1    1         0.2262141259E+00      0.1230157188E+01
          0                 2           2            10   10     1       0.2100829339E-02      10   10    1         0.5456456411E-01      0.3237251823E+00
          0                 3           2            10   10     1       0.9441044123E-03      10   10    1         0.2452112988E-01      0.1239357486E+00
          0                 4           2            10   10     1       0.4242761872E-03      10   10    1         0.1101969637E-01      0.5398767623E-01
          0                 5           2            10   10     1       0.1906674966E-03      10   10    1         0.4952199707E-02      0.2408055824E-01
          0                 6           1            10   10     1       0.8568485178E-04      10   10    1         0.2225492048E-02      0.1078074572E-01
          0                 7           1            10   10     1       0.3850621334E-04      10   10    1         0.1000122780E-02      0.4829391389E-02
          0                 8           1            10   10     1       0.1730441625E-04      10   10    1         0.4494485344E-03      0.2163679474E-02
          0                 9           1            10   10     1       0.7776469317E-05      10   10    1         0.2019788935E-03      0.9694353777E-03

    ------------------------------------------------
       NWT REQUIRED            9 OUTER ITERATIONS 
       AND A TOTAL OF         14 INNER ITERATIONS.
    ------------------------------------------------

 NO OUTPUT CONTROL FOR STRESS PERIOD   13   TIME STEP   13
 
 SOLVING FOR HEAD 
                                                   Max.-Head-Change                         Max.-Flux-Residual
  Residual-Control   Outer-Iter.   Inner-Iter.     Column Row Layer    Maximum-Head-Change  Column Row Layer    Maximum-Flux-Residual          L2-NORM 
          0                 1           2            10   10     1       0.4672241773E-02       2    1    1         0.2258327907E+00      0.1228787936E+01
          0                 2           2            10   10     1       0.2099686885E-02      10   10    1         0.5453495795E-01      0.3233724069E+00
          0                 3           2            10   10     1       0.9435895912E-03      10   10    1         0.2450778835E-01      0.1237763234E+00
          0                 4           2            10   10     1       0.4240441990E-03      10   10    1         0.1101368433E-01      0.5391564033E-01
          0                 5           2            10   10     1       0.1905629602E-03      10   10    1         0.4949490579E-02      0.2404842518E-01
          0                 6           1            10   10     1       0.8563774711E-04      10   10    1         0.2224271287E-02      0.1076644360E-01
          0                 7           1            10   10     1       0.3848498817E-04      10   10    1         0.9995727031E-03      0.4823025748E-02
          0                 8           1            10   10     1       0.1729485250E-04      10   10    1         0.4492006726E-03      0.2160844760E-02
          0                 9           1            10   10     1       0.7772159903E-05      10   10    1         0.2018672107E-03      0.9681720828E-03

    ------------------------------------------------
       NWT REQUIRED            9 OUTER ITERATIONS 
       AND A TOTAL OF         14 INNER ITERATIONS.
    ------------------------------------------------

 NO OUTPUT CONTROL FOR STRESS PERIOD   13   TIME STEP   14
 
 SOLVING FOR HEAD 
                                                   Max.-Head-Change                         Max.-Flux-Residual
  Residual-Control   Outer-Iter.   Inner-Iter.     Column Row Layer    Maximum-Head-Change  Column Row Layer    Maximum-Flux-Residual          L2-NORM 
          0                 1           2            10   10     1       0.4669592830E-02       2    1    1         0.2254546216E+00      0.1227338430E+01
          0                 2           2            10   10     1       0.2098493393E-02      10   10    1         0.5450402464E-01      0.3230566382E+00
          0                 3           2            10   10     1       0.9430518672E-03      10   10    1         0.2449385126E-01      0.1236452180E+00
          0                 4           2            10   10     1       0.4238019334E-03      10   10    1         0.1100740505E-01      0.5385651241E-01
          0                 5           2            10   10     1       0.1904538114E-03      10   10    1         0.4946661514E-02      0.2402180476E-01
          0                 6           1            10   10     1       0.8558857303E-04      10   10    1         0.2222996704E-02      0.1075448040E-01
          0                 7           1            10   10     1       0.3846283408E-04      10   10    1         0.9989984694E-03      0.4817653706E-02
          0                 8           1            10   10     1       0.1728487182E-04      10   10    1         0.4489419718E-03      0.2158434204E-02
          0                 9           1            10   10     1       0.7767663907E-05      10   10    1         0.2017506657E-03      0.9670953871E-03

    ------------------------------------------------
       NWT REQUIRED            9 OUTER ITERATIONS 
       AND A TOTAL OF         14 INNER ITERATIONS.
    ------------------------------------------------

 NO OUTPUT CONTROL FOR STRESS PERIOD   13   TIME STEP   15
 
 SOLVING FOR HEAD 
                                                   Max.-Head-Change                         Max.-Flux-Residual
  Residual-Control   Outer-Iter.   Inner-Iter.     Column Row Layer    Maximum-Head-Change  Column Row Layer    Maximum-Flux-Residual          L2-NORM 
          0                 1           2            10   10     1       0.4667048028E-02       2    1    1         0.2250795878E+00      0.1226091122E+01
          0                 2           2            10   10     1       0.2097346677E-02      10   10    1         0.5447430675E-01      0.3227723695E+00
          0                 3           2            10   10     1       0.9425351538E-03      10   10    1         0.2448046010E-01      0.1235159151E+00
          0                 4           2            10   10     1       0.4235691046E-03      10   10    1         0.1100137096E-01      0.5379720683E-01
          0                 5           2            10   10     1       0.1903489019E-03      10   10    1         0.4943942596E-02      0.2399504362E-01
          0                 6           1            10   10     1       0.8554130254E-04      10   10    1         0.2221771595E-02      0.1074245033E-01
          0                 7           1            10   10     1       0.3844153537E-04      10   10    1         0.9984464648E-03      0.4812251562E-02
          0                 8           1            10   10     1       0.1727527531E-04      10   10    1         0.4486932551E-03      0.2156009822E-02
          0                 9           1            10   10     1       0.7763340238E-05      10   10    1         0.2016386054E-03      0.9660043606E-03

    ------------------------------------------------
       NWT REQUIRED            9 OUTER ITERATIONS 
       AND A TOTAL OF         14 INNER ITERATIONS.
    ------------------------------------------------

 NO OUTPUT CONTROL FOR STRESS PERIOD   13   TIME STEP   16
 
 SOLVING FOR HEAD 
                                                   Max.-Head-Change                         Max.-Flux-Residual
  Residual-Control   Outer-Iter.   Inner-Iter.     Column Row Layer    Maximum-Head-Change  Column Row Layer    Maximum-Flux-Residual          L2-NORM 
          0                 1           2            10   10     1       0.4664389670E-02       2    1    1         0.2247076442E+00      0.1225038487E+01
          0                 2           2            10   10     1       0.2096149004E-02      10   10    1         0.5444326378E-01      0.3224996936E+00
          0                 3           2            10   10     1       0.9419955733E-03      10   10    1         0.2446647432E-01      0.1233867491E+00
          0                 4           2            10   10     1       0.4233260144E-03      10   10    1         0.1099507005E-01      0.5373793066E-01
          0                 5           2            10   10     1       0.1902393872E-03      10   10    1         0.4941103937E-02      0.2396837023E-01
          0                 6           1            10   10     1       0.8549196614E-04      10   10    1         0.2220492759E-02      0.1073049156E-01
          0                 7           1            10   10     1       0.3841930976E-04      10   10    1         0.9978703488E-03      0.4806893501E-02
          0                 8           1            10   10     1       0.1726526286E-04      10   10    1         0.4484337169E-03      0.2153609130E-02
          0                 9           1            10   10     1       0.7758829735E-05      10   10    1         0.2015216852E-03      0.9649272341E-03

    ------------------------------------------------
       NWT REQUIRED            9 OUTER ITERATIONS 
       AND A TOTAL OF         14 INNER ITERATIONS.
    ------------------------------------------------

 NO OUTPUT CONTROL FOR STRESS PERIOD   13   TIME STEP   17
 
 SOLVING FOR HEAD 
                                                   Max.-Head-Change                         Max.-Flux-Residual
  Residual-Control   Outer-Iter.   Inner-Iter.     Column Row Layer    Maximum-Head-Change  Column Row Layer    Maximum-Flux-Residual          L2-NORM 
          0                 1           2            10   10     1       0.4661726961E-02       2    1    1         0.2243387613E+00      0.1223892932E+01
          0                 2           2            10   10     1       0.2094949400E-02      10   10    1         0.5441217013E-01      0.3222037366E+00
          0                 3           2            10   10     1       0.9414551356E-03      10   10    1         0.2445246604E-01      0.1232537287E+00
          0                 4           2            10   10     1       0.4230825435E-03      10   10    1         0.1098875915E-01      0.5367775995E-01
          0                 5           2            10   10     1       0.1901297040E-03      10   10    1         0.4938260845E-02      0.2394140701E-01
          0                 6           1            10   10     1       0.8544255420E-04      10   10    1         0.2219211944E-02      0.1071842535E-01
          0                 7           1            10   10     1       0.3839705037E-04      10   10    1         0.9972933517E-03      0.4801493513E-02
          0                 8           1            10   10     1       0.1725523541E-04      10   10    1         0.4481737891E-03      0.2151190490E-02
          0                 9           1            10   10     1       0.7754312730E-05      10   10    1         0.2014045935E-03      0.9638440155E-03

    ------------------------------------------------
       NWT REQUIRED            9 OUTER ITERATIONS 
       AND A TOTAL OF         14 INNER ITERATIONS.
    ------------------------------------------------

 NO OUTPUT CONTROL FOR STRESS PERIOD   13   TIME STEP   18
 
 SOLVING FOR HEAD 
                                                   Max.-Head-Change                         Max.-Flux-Residual
  Residual-Control   Outer-Iter.   Inner-Iter.     Column Row Layer    Maximum-Head-Change  Column Row Layer    Maximum-Flux-Residual          L2-NORM 
          0                 1           2            10   10     1       0.4659168722E-02       2    1    1         0.2239729025E+00      0.1222715957E+01
          0                 2           2            10   10     1       0.2093796719E-02      10   10    1         0.5438229575E-01      0.3219091131E+00
          0                 3           2            10   10     1       0.9409357740E-03      10   10    1         0.2443900540E-01      0.1231216911E+00
          0                 4           2            10   10     1       0.4228485399E-03      10   10    1         0.1098269423E-01      0.5361802352E-01
          0                 5           2            10   10     1       0.1900242722E-03      10   10    1         0.4935528233E-02      0.2391465548E-01
          0                 6           1            10   10     1       0.8539505261E-04      10   10    1         0.2217980763E-02      0.1070645800E-01
          0                 7           1            10   10     1       0.3837564887E-04      10   10    1         0.9967386481E-03      0.4796136651E-02
          0                 8           1            10   10     1       0.1724559338E-04      10   10    1         0.4479238730E-03      0.2148792415E-02
          0                 9           1            10   10     1       0.7749968801E-05      10   10    1         0.2012919984E-03      0.9627704235E-03

    ------------------------------------------------
       NWT REQUIRED            9 OUTER ITERATIONS 
       AND A TOTAL OF         14 INNER ITERATIONS.
    ------------------------------------------------

 NO OUTPUT CONTROL FOR STRESS PERIOD   13   TIME STEP   19
 
 SOLVING FOR HEAD 
                                                   Max.-Head-Change                         Max.-Flux-Residual
  Residual-Control   Outer-Iter.   Inner-Iter.     Column Row Layer    Maximum-Head-Change  Column Row Layer    Maximum-Flux-Residual          L2-NORM 
          0                 1           2            10   10     1       0.4656497185E-02       2    1    1         0.2236100270E+00      0.1221549803E+01
          0                 2           2            10   10     1       0.2092593196E-02      10   10    1         0.5435109930E-01      0.3216169452E+00
          0                 3           2            10   10     1       0.9403935970E-03      10   10    1         0.2442495149E-01      0.1229911939E+00
          0                 4           2            10   10     1       0.4226042970E-03      10   10    1         0.1097636308E-01      0.5355881627E-01
          0                 5           2            10   10     1       0.1899142464E-03      10   10    1         0.4932676152E-02      0.2388805468E-01
          0                 6           1            10   10     1       0.8534548911E-04      10   10    1         0.2216695965E-02      0.1069453220E-01
          0                 7           1            10   10     1       0.3835332221E-04      10   10    1         0.9961598815E-03      0.4790792405E-02
          0                 8           1            10   10     1       0.1723553617E-04      10   10    1         0.4476631588E-03      0.2146397504E-02
          0                 9           1            10   10     1       0.7745438290E-05      10   10    1         0.2011745558E-03      0.9616974585E-03

    ------------------------------------------------
       NWT REQUIRED            9 OUTER ITERATIONS 
       AND A TOTAL OF         14 INNER ITERATIONS.
    ------------------------------------------------

 NO OUTPUT CONTROL FOR STRESS PERIOD   13   TIME STEP   20
 
 SOLVING FOR HEAD 
                                                   Max.-Head-Change                         Max.-Flux-Residual
  Residual-Control   Outer-Iter.   Inner-Iter.     Column Row Layer    Maximum-Head-Change  Column Row Layer    Maximum-Flux-Residual          L2-NORM 
          0                 1           2            10   10     1       0.4653821390E-02       2    1    1         0.2232489284E+00      0.1220537029E+01
          0                 2           2            10   10     1       0.2091387676E-02      10   10    1         0.5431985275E-01      0.3213435366E+00
          0                 3           2            10   10     1       0.9398504857E-03      10   10    1         0.2441087409E-01      0.1228629827E+00
          0                 4           2            10   10     1       0.4223596183E-03      10   10    1         0.1097002094E-01      0.5350012090E-01
          0                 5           2            10   10     1       0.1898040174E-03      10   10    1         0.4929818948E-02      0.2386164094E-01
          0                 6           1            10   10     1       0.8529583106E-04      10   10    1         0.2215408781E-02      0.1068268508E-01
          0                 7           1            10   10     1       0.3833095153E-04      10   10    1         0.9955800103E-03      0.4785481954E-02
          0                 8           1            10   10     1       0.1722545869E-04      10   10    1         0.4474019349E-03      0.2144017723E-02
          0                 9           1            10   10     1       0.7740898524E-05      10   10    1         0.2010568789E-03      0.9606302302E-03

    ------------------------------------------------
       NWT REQUIRED            9 OUTER ITERATIONS 
       AND A TOTAL OF         14 INNER ITERATIONS.
    ------------------------------------------------

 NO OUTPUT CONTROL FOR STRESS PERIOD   13   TIME STEP   21
 
 SOLVING FOR HEAD 
                                                   Max.-Head-Change                         Max.-Flux-Residual
  Residual-Control   Outer-Iter.   Inner-Iter.     Column Row Layer    Maximum-Head-Change  Column Row Layer    Maximum-Flux-Residual          L2-NORM 
          0                 1           2            10   10     1       0.4651141441E-02       2    1    1         0.2228919359E+00      0.1219646716E+01
          0                 2           2            10   10     1       0.2090180422E-02      10   10    1         0.5428855834E-01      0.3210839871E+00
          0                 3           2            10   10     1       0.9393066545E-03      10   10    1         0.2439677674E-01      0.1227371800E+00
          0                 4           2            10   10     1       0.4221146428E-03      10   10    1         0.1096367054E-01      0.5344225561E-01
          0                 5           2            10   10     1       0.1896936667E-03      10   10    1         0.4926958332E-02      0.2383558409E-01
          0                 6           1            10   10     1       0.8524612349E-04      10   10    1         0.2214120201E-02      0.1067099554E-01
          0                 7           1            10   10     1       0.3830856134E-04      10   10    1         0.9949995719E-03      0.4780241001E-02
          0                 8           1            10   10     1       0.1721537321E-04      10   10    1         0.4471404778E-03      0.2141668457E-02
          0                 9           1            10   10     1       0.7736355757E-05      10   10    1         0.2009391099E-03      0.9595777867E-03

    ------------------------------------------------
       NWT REQUIRED            9 OUTER ITERATIONS 
       AND A TOTAL OF         14 INNER ITERATIONS.
    ------------------------------------------------

 NO OUTPUT CONTROL FOR STRESS PERIOD   13   TIME STEP   22
 
 SOLVING FOR HEAD 
                                                   Max.-Head-Change                         Max.-Flux-Residual
  Residual-Control   Outer-Iter.   Inner-Iter.     Column Row Layer    Maximum-Head-Change  Column Row Layer    Maximum-Flux-Residual          L2-NORM 
          0                 1           2            10   10     1       0.4648566203E-02       2    1    1         0.2225378302E+00      0.1218535801E+01
          0                 2           2            10   10     1       0.2089020092E-02      10   10    1         0.5425848549E-01      0.3207919824E+00
          0                 3           2            10   10     1       0.9387838518E-03      10   10    1         0.2438322681E-01      0.1226084142E+00
          0                 4           2            10   10     1       0.4218790905E-03      10   10    1         0.1095756544E-01      0.5338397384E-01
          0                 5           2            10   10     1       0.1895875388E-03      10   10    1         0.4924207655E-02      0.2380939910E-01
          0                 6           1            10   10     1       0.8519830876E-04      10   10    1         0.2212880894E-02      0.1065925463E-01
          0                 7           1            10   10     1       0.3828701927E-04      10   10    1         0.9944412120E-03      0.4774979229E-02
          0                 8           1            10   10     1       0.1720566766E-04      10   10    1         0.4468889163E-03      0.2139310458E-02
          0                 9           1            10   10     1       0.7731983316E-05      10   10    1         0.2008257750E-03      0.9585206306E-03

    ------------------------------------------------
       NWT REQUIRED            9 OUTER ITERATIONS 
       AND A TOTAL OF         14 INNER ITERATIONS.
    ------------------------------------------------

 NO OUTPUT CONTROL FOR STRESS PERIOD   13   TIME STEP   23
 
 SOLVING FOR HEAD 
                                                   Max.-Head-Change                         Max.-Flux-Residual
  Residual-Control   Outer-Iter.   Inner-Iter.     Column Row Layer    Maximum-Head-Change  Column Row Layer    Maximum-Flux-Residual          L2-NORM 
          0                 1           2            10   10     1       0.4645877822E-02       2    1    1         0.2221853986E+00      0.1217243086E+01
          0                 2           2            10   10     1       0.2087809100E-02      10   10    1         0.5422709291E-01      0.3204853694E+00
          0                 3           2            10   10     1       0.9382383627E-03      10   10    1         0.2436908592E-01      0.1224793856E+00
          0                 4           2            10   10     1       0.4216333794E-03      10   10    1         0.1095119572E-01      0.5332610579E-01
          0                 5           2            10   10     1       0.1894768619E-03      10   10    1         0.4921338477E-02      0.2378343427E-01
          0                 6           1            10   10     1       0.8514845663E-04      10   10    1         0.2211588519E-02      0.1064761122E-01
          0                 7           1            10   10     1       0.3826456455E-04      10   10    1         0.9938590934E-03      0.4769759443E-02
          0                 8           1            10   10     1       0.1719555417E-04      10   10    1         0.4466267226E-03      0.2136970971E-02
          0                 9           1            10   10     1       0.7727428043E-05      10   10    1         0.2007076783E-03      0.9574828497E-03

    ------------------------------------------------
       NWT REQUIRED            9 OUTER ITERATIONS 
       AND A TOTAL OF         14 INNER ITERATIONS.
    ------------------------------------------------

 NO OUTPUT CONTROL FOR STRESS PERIOD   13   TIME STEP   24
 
 SOLVING FOR HEAD 
                                                   Max.-Head-Change                         Max.-Flux-Residual
  Residual-Control   Outer-Iter.   Inner-Iter.     Column Row Layer    Maximum-Head-Change  Column Row Layer    Maximum-Flux-Residual          L2-NORM 
          0                 1           2            10   10     1       0.4643185578E-02       2    1    1         0.2218369806E+00      0.1216228434E+01
          0                 2           2            10   10     1       0.2086596285E-02      10   10    1         0.5419565483E-01      0.3202010052E+00
          0                 3           2            10   10     1       0.9376920166E-03      10   10    1         0.2435492359E-01      0.1223510138E+00
          0                 4           2            10   10     1       0.4213872669E-03      10   10    1         0.1094481593E-01      0.5326784377E-01
          0                 5           2            10   10     1       0.1893659970E-03      10   10    1         0.4918464572E-02      0.2375723960E-01
          0                 6           1            10   10     1       0.8509851671E-04      10   10    1         0.2210293934E-02      0.1063585849E-01
          0                 7           1            10   10     1       0.3824206906E-04      10   10    1         0.9932759402E-03      0.4764488701E-02
          0                 8           1            10   10     1       0.1718542142E-04      10   10    1         0.4463640453E-03      0.2134607818E-02
          0                 9           1            10   10     1       0.7722863767E-05      10   10    1         0.2005893556E-03      0.9564125242E-03

    ------------------------------------------------
       NWT REQUIRED            9 OUTER ITERATIONS 
       AND A TOTAL OF         14 INNER ITERATIONS.
    ------------------------------------------------

 NO OUTPUT CONTROL FOR STRESS PERIOD   13   TIME STEP   25
 
 SOLVING FOR HEAD 
                                                   Max.-Head-Change                         Max.-Flux-Residual
  Residual-Control   Outer-Iter.   Inner-Iter.     Column Row Layer    Maximum-Head-Change  Column Row Layer    Maximum-Flux-Residual          L2-NORM 
          0                 1           2            10   10     1       0.4640489370E-02       2    1    1         0.2214901729E+00      0.1215097292E+01
          0                 2           2            10   10     1       0.2085381715E-02      10   10    1         0.5416417059E-01      0.3199154119E+00
          0                 3           2            10   10     1       0.9371448937E-03      10   10    1         0.2434074081E-01      0.1222219050E+00
          0                 4           2            10   10     1       0.4211408100E-03      10   10    1         0.1093842708E-01      0.5320902130E-01
          0                 5           2            10   10     1       0.1892549797E-03      10   10    1         0.4915586657E-02      0.2373077554E-01
          0                 6           1            10   10     1       0.8504850926E-04      10   10    1         0.2208997570E-02      0.1062398588E-01
          0                 7           1            10   10     1       0.3821954431E-04      10   10    1         0.9926920024E-03      0.4759165224E-02
          0                 8           1            10   10     1       0.1717527491E-04      10   10    1         0.4461010076E-03      0.2132221134E-02
          0                 9           1            10   10     1       0.7718293488E-05      10   10    1         0.2004708767E-03      0.9553438676E-03

    ------------------------------------------------
       NWT REQUIRED            9 OUTER ITERATIONS 
       AND A TOTAL OF         14 INNER ITERATIONS.
    ------------------------------------------------

 NO OUTPUT CONTROL FOR STRESS PERIOD   13   TIME STEP   26
 
 SOLVING FOR HEAD 
                                                   Max.-Head-Change                         Max.-Flux-Residual
  Residual-Control   Outer-Iter.   Inner-Iter.     Column Row Layer    Maximum-Head-Change  Column Row Layer    Maximum-Flux-Residual          L2-NORM 
          0                 1           2            10   10     1       0.4637789299E-02       2    1    1         0.2211461321E+00      0.1214298486E+01
          0                 2           2            10   10     1       0.2084165433E-02      10   10    1         0.5413264138E-01      0.3196487422E+00
          0                 3           2            10   10     1       0.9365970119E-03      10   10    1         0.2432653811E-01      0.1220923353E+00
          0                 4           2            10   10     1       0.4208940169E-03      10   10    1         0.1093202940E-01      0.5314992659E-01
          0                 5           2            10   10     1       0.1891438136E-03      10   10    1         0.4912704837E-02      0.2370431425E-01
          0                 6           1            10   10     1       0.8499843627E-04      10   10    1         0.2207699481E-02      0.1061215634E-01
          0                 7           1            10   10     1       0.3819698955E-04      10   10    1         0.9921072963E-03      0.4753872854E-02
          0                 8           1            10   10     1       0.1716511590E-04      10   10    1         0.4458376442E-03      0.2129851180E-02
          0                 9           1            10   10     1       0.7713717706E-05      10   10    1         0.2003522549E-03      0.9542806611E-03

    ------------------------------------------------
       NWT REQUIRED            9 OUTER ITERATIONS 
       AND A TOTAL OF         14 INNER ITERATIONS.
    ------------------------------------------------

 NO OUTPUT CONTROL FOR STRESS PERIOD   13   TIME STEP   27
 
 SOLVING FOR HEAD 
                                                   Max.-Head-Change                         Max.-Flux-Residual
  Residual-Control   Outer-Iter.   Inner-Iter.     Column Row Layer    Maximum-Head-Change  Column Row Layer    Maximum-Flux-Residual          L2-NORM 
          0                 1           2            10   10     1       0.4635085460E-02       2    1    1         0.2208048247E+00      0.1213420695E+01
          0                 2           2            10   10     1       0.2082947483E-02      10   10    1         0.5410106832E-01      0.3193799372E+00
          0                 3           2            10   10     1       0.9360483919E-03      10   10    1         0.2431231599E-01      0.1219667198E+00
          0                 4           2            10   10     1       0.4206468972E-03      10   10    1         0.1092562313E-01      0.5309258431E-01
          0                 5           2            10   10     1       0.1890325029E-03      10   10    1         0.4909819210E-02      0.2367852771E-01
          0                 6           1            10   10     1       0.8494829876E-04      10   10    1         0.2206399703E-02      0.1060058894E-01
          0                 7           1            10   10     1       0.3817440702E-04      10   10    1         0.9915218458E-03      0.4748685846E-02
          0                 8           1            10   10     1       0.1715494439E-04      10   10    1         0.4455739434E-03      0.2127525136E-02
          0                 9           1            10   10     1       0.7709136422E-05      10   10    1         0.2002334792E-03      0.9532382674E-03

    ------------------------------------------------
       NWT REQUIRED            9 OUTER ITERATIONS 
       AND A TOTAL OF         14 INNER ITERATIONS.
    ------------------------------------------------

 NO OUTPUT CONTROL FOR STRESS PERIOD   13   TIME STEP   28
 
 SOLVING FOR HEAD 
                                                   Max.-Head-Change                         Max.-Flux-Residual
  Residual-Control   Outer-Iter.   Inner-Iter.     Column Row Layer    Maximum-Head-Change  Column Row Layer    Maximum-Flux-Residual          L2-NORM 
          0                 1           2            10   10     1       0.4632377952E-02       2    1    1         0.2204674069E+00      0.1205588753E+01
          0                 2           2            10   10     1       0.2081727908E-02      10   10    1         0.5406945254E-01      0.3182608475E+00
          0                 3           2            10   10     1       0.9354990525E-03      10   10    1         0.2429807497E-01      0.1217702577E+00
          0                 4           2            10   10     1       0.4203994588E-03      10   10    1         0.1091920849E-01      0.5303009806E-01
          0                 5           2            10   10     1       0.1889210514E-03      10   10    1         0.4906929887E-02      0.2365234677E-01
          0                 6           1            10   10     1       0.8489809973E-04      10   10    1         0.2205098294E-02      0.1058897408E-01
          0                 7           1            10   10     1       0.3815179649E-04      10   10    1         0.9909356700E-03      0.4743486109E-02
          0                 8           1            10   10     1       0.1714476086E-04      10   10    1         0.4453099309E-03      0.2125194448E-02
          0                 9           1            10   10     1       0.7704549886E-05      10   10    1         0.2001145654E-03      0.9521932059E-03

    ------------------------------------------------
       NWT REQUIRED            9 OUTER ITERATIONS 
       AND A TOTAL OF         14 INNER ITERATIONS.
    ------------------------------------------------

 NO OUTPUT CONTROL FOR STRESS PERIOD   13   TIME STEP   29
 
 SOLVING FOR HEAD 
                                                   Max.-Head-Change                         Max.-Flux-Residual
  Residual-Control   Outer-Iter.   Inner-Iter.     Column Row Layer    Maximum-Head-Change  Column Row Layer    Maximum-Flux-Residual          L2-NORM 
          0                 1           2            10   10     1       0.4629666869E-02       2    1    1         0.2201281784E+00      0.1193655107E+01
          0                 2           2            10   10     1       0.2080506750E-02      10   10    1         0.5403779514E-01      0.3167179217E+00
          0                 3           2            10   10     1       0.9349490123E-03      10   10    1         0.2428381551E-01      0.1215591980E+00
          0                 4           2            10   10     1       0.4201517103E-03      10   10    1         0.1091278568E-01      0.5297338743E-01
          0                 5           2            10   10     1       0.1888094621E-03      10   10    1         0.4904036935E-02      0.2362887379E-01
          0                 6           1            10   10     1       0.8484783891E-04      10   10    1         0.2203795273E-02      0.1057831108E-01
          0                 7           1            10   10     1       0.3812915919E-04      10   10    1         0.9903487836E-03      0.4738598566E-02
          0                 8           1            10   10     1       0.1713456484E-04      10   10    1         0.4450455940E-03      0.2122961443E-02
          0                 9           1            10   10     1       0.7699957847E-05      10   10    1         0.1999955131E-03      0.9511768550E-03

    ------------------------------------------------
       NWT REQUIRED            9 OUTER ITERATIONS 
       AND A TOTAL OF         14 INNER ITERATIONS.
    ------------------------------------------------

 NO OUTPUT CONTROL FOR STRESS PERIOD   13   TIME STEP   30



 STREAM LISTING     PERIOD     13   STEP       30

 LAYER ROW COL. STREAM  RCH.  FLOW INTO     FLOW TO   FLOW OUT OF   OVRLND.     DIRECT     STREAM       STREAM     STREAM     STREAM   STREAMBED  STREAMBED
                SEG.NO.  NO.  STRM. RCH.    AQUIFER    STRM. RCH.    RUNOFF     PRECIP       ET          HEAD       DEPTH      WIDTH   CONDCTNC.   GRADIENT

   1    1    1     1     1    3.1000E+00  7.9303E-02   3.0207E+00  0.000E+00  0.000E+00  0.000E+00  1.09369E+03  6.377E-01  4.844E+00  2.180E-02  1.213E+00
   1    2    2     1     2    3.0207E+00  1.2174E-01   2.8990E+00  0.000E+00  0.000E+00  0.000E+00  1.08869E+03  6.304E-01  4.791E+00  3.353E-02  1.210E+00
   1    3    3     1     3    2.8990E+00  1.0276E-01   2.7962E+00  0.000E+00  0.000E+00  0.000E+00  1.08304E+03  6.219E-01  4.729E+00  2.837E-02  1.207E+00
   1    3    4     1     4    2.7962E+00  9.3747E-02   2.7024E+00  0.000E+00  0.000E+00  0.000E+00  1.07802E+03  6.144E-01  4.673E+00  2.594E-02  1.205E+00
   1    4    5     2     1    7.0245E-01  2.4385E-01   4.5860E-01  0.000E+00  0.000E+00  0.000E+00  1.07206E+03  1.263E-01  1.200E+01  7.800E-02  1.042E+00
   1    5    6     2     2    4.5860E-01  1.8574E-01   2.7285E-01  0.000E+00  0.000E+00  0.000E+00  1.06661E+03  9.573E-02  1.200E+01  6.000E-02  1.032E+00
   1    6    6     2     3    2.7285E-01  1.8377E-01   8.9086E-02  0.000E+00  0.000E+00  0.000E+00  1.06186E+03  6.276E-02  1.200E+01  6.000E-02  1.021E+00
   1    7    6     2     4    8.9086E-02  8.9086E-02   0.0000E+00  0.000E+00  0.000E+00  0.000E+00  1.05708E+03  9.230E-03  1.200E+01  6.000E-02  1.003E+00
   1    8    6     2     5    0.0000E+00  0.0000E+00   0.0000E+00  0.000E+00  0.000E+00  0.000E+00  1.05236E+03  0.000E+00  1.200E+01  6.000E-02  1.000E+00
   1    3    5     3     1    2.0000E+00  2.8252E-01   1.7175E+00  0.000E+00  0.000E+00  0.000E+00  1.07555E+03  1.909E+00  9.636E+00  7.227E-02  1.955E+00
   1    3    6     3     2    1.7175E+00  2.4905E-01   1.4684E+00  0.000E+00  0.000E+00  0.000E+00  1.07264E+03  1.727E+00  8.909E+00  6.682E-02  1.864E+00
   1    3    7     3     3    1.4684E+00  1.9718E-01   1.2712E+00  0.000E+00  0.000E+00  0.000E+00  1.06987E+03  1.555E+00  8.218E+00  5.547E-02  1.777E+00
   1    4    8     3     4    1.2712E+00  2.2567E-01   1.0456E+00  0.000E+00  0.000E+00  0.000E+00  1.06682E+03  1.364E+00  7.455E+00  6.709E-02  1.682E+00
   1    5    8     3     5    1.0456E+00  1.5790E-01   8.8768E-01  0.000E+00  0.000E+00  0.000E+00  1.06362E+03  1.164E+00  6.655E+00  4.991E-02  1.582E+00
   1    6    8     3     6    8.8768E-01  5.5980E-02   8.3170E-01  0.000E+00  0.000E+00  0.000E+00  1.06158E+03  1.036E+00  6.145E+00  1.844E-02  1.518E+00
   1    5   10     4     1    1.0000E+01  9.0919E-02   9.9091E+00  0.000E+00  0.000E+00  0.000E+00  1.07836E+03  6.368E-01  1.000E+01  2.500E-02  1.212E+00
   1    5    9     4     2    9.9091E+00  1.8158E-01   9.7275E+00  0.000E+00  0.000E+00  0.000E+00  1.07154E+03  6.315E-01  1.000E+01  5.000E-02  1.211E+00
   1    6    8     4     3    9.7275E+00  1.2689E-01   9.6006E+00  0.000E+00  0.000E+00  0.000E+00  1.06381E+03  6.256E-01  1.000E+01  3.500E-02  1.209E+00
   1    6    8     5     1    1.0432E+01  2.2686E-01   1.0205E+01  0.000E+00  0.000E+00  0.000E+00  1.05868E+03  6.790E-01  1.542E+01  6.166E-02  1.226E+00
   1    7    7     5     2    1.0205E+01  2.7894E-01   9.9265E+00  0.000E+00  0.000E+00  0.000E+00  1.05417E+03  6.732E-01  1.519E+01  7.594E-02  1.224E+00
   1    8    7     5     3    9.9265E+00  1.9221E-01   9.7343E+00  0.000E+00  0.000E+00  0.000E+00  1.04992E+03  6.676E-01  1.497E+01  5.241E-02  1.223E+00
   1    8    6     5     4    9.7343E+00  1.3577E-01   9.5985E+00  0.000E+00  0.000E+00  0.000E+00  1.04691E+03  6.637E-01  1.482E+01  3.706E-02  1.221E+00
   1    9    6     6     1    9.5985E+00  2.2097E-01   9.3776E+00  0.000E+00  0.000E+00  0.000E+00  1.04341E+03  6.828E-01  1.200E+01  6.000E-02  1.228E+00
   1   10    7     6     2    9.3776E+00  2.2039E-01   9.1572E+00  0.000E+00  0.000E+00  0.000E+00  1.03885E+03  6.732E-01  1.200E+01  6.000E-02  1.224E+00
   1   11    7     6     3    9.1572E+00  2.1981E-01   8.9374E+00  0.000E+00  0.000E+00  0.000E+00  1.03430E+03  6.636E-01  1.200E+01  6.000E-02  1.221E+00
   1   12    7     6     4    8.9374E+00  2.1923E-01   8.7181E+00  0.000E+00  0.000E+00  0.000E+00  1.02974E+03  6.539E-01  1.200E+01  6.000E-02  1.218E+00
   1   13    7     6     5    8.7181E+00 -2.0282E-01   8.9210E+00  0.000E+00  0.000E+00  0.000E+00  1.02656E+03  6.535E-01  1.200E+01  2.400E-01 -2.817E-01
   1   14    9     7     1    1.5000E+02  1.1561E+00   1.4884E+02  0.000E+00  0.000E+00  0.000E+00  1.03987E+03  2.288E+00  5.530E+01  5.593E-01  6.890E-01
   1   13    8     7     2    1.4884E+02  1.6185E+00   1.4723E+02  0.000E+00  0.000E+00  0.000E+00  1.03478E+03  2.281E+00  5.526E+01  6.149E-01  8.774E-01
   1   13    7     7     3    1.4723E+02  1.2762E+00   1.4595E+02  0.000E+00  0.000E+00  0.000E+00  1.02969E+03  2.273E+00  5.523E+01  5.586E-01  7.616E-01
   1   13    6     8     1    1.5487E+02  6.5670E-01   1.5421E+02  0.000E+00  0.000E+00  0.000E+00  1.02472E+03  2.849E+00  4.130E+01  4.209E-01  5.201E-01
   1   13    5     8     2    1.5421E+02 -3.2329E-01   1.5454E+02  0.000E+00  0.000E+00  0.000E+00  1.01847E+03  2.847E+00  4.129E+01  4.207E+00 -2.561E-02
   1   13    4     8     3    1.5454E+02 -3.3443E+00   1.5788E+02  0.000E+00  0.000E+00  0.000E+00  1.01223E+03  2.860E+00  4.147E+01  4.226E+00 -2.638E-01
   1   13    3     8     4    1.5788E+02 -4.2543E+00   1.6214E+02  0.000E+00  0.000E+00  0.000E+00  1.00601E+03  2.886E+00  4.185E+01  4.264E+00 -3.326E-01
   1   13    2     8     5    1.6214E+02 -2.8361E+00   1.6497E+02  0.000E+00  0.000E+00  0.000E+00  9.99785E+02  2.910E+00  4.219E+01  4.299E+00 -2.199E-01
   1   13    1     8     6    1.6497E+02 -2.0809E+00   1.6705E+02  0.000E+00  0.000E+00  0.000E+00  9.94801E+02  2.926E+00  4.243E+01  2.594E+00 -2.674E-01
   1    6    8     9     1    0.0000E+00  0.0000E+00   0.0000E+00  0.000E+00  0.000E+00  0.000E+00  1.07850E+03  0.000E+00  4.000E+00  0.000E+00  1.000E+00





UNSATURATED ZONE PACKAGE VOLUMETRIC BUDGET FOR  TIME STEP    30 STRESS PERIOD   13
  ------------------------------------------------------------------------------



     CUMULATIVE VOLUMES      L**3       RATES FOR THIS TIME STEP      L**3/T
     ------------------                 ------------------------

           IN:                                      IN:
           ---                                      ---
        INFILTRATION =    26615969.2213          INFILTRATION =       0.0000E+00

          OUT:                                     OUT:
          ----                                     ----
              UZF ET =   553806221.0037                UZF ET =       0.0000E+00
        UZF RECHARGE =   770586402.9286          UZF RECHARGE =          21.3463

            IN - OUT = -1297776654.7111              IN - OUT =         -21.3463

          STORAGE:                                 STORAGE:
          --------                                 --------
      STORAGE CHANGE = -1297751185.4190        STORAGE CHANGE =         -21.3463

 PERCENT DISCREPANCY IS DIFFERENCE BETWEEN IN-OUT MINUS CHANGE IN STORAGE
 DIVIDED BY THE AVERAGE OF IN AND OUT TIMES 100

 PERCENT DISCREPANCY =          -0.00     PERCENT DISCREPANCY =           0.00






1
  VOLUMETRIC BUDGET FOR ENTIRE MODEL AT END OF TIME STEP   30, STRESS PERIOD  13
  ------------------------------------------------------------------------------

     CUMULATIVE VOLUMES      L**3       RATES FOR THIS TIME STEP      L**3/T
     ------------------                 ------------------------

           IN:                                      IN:
           ---                                      ---
             STORAGE     =    31750386.0000               STORAGE     =       3.4467E-02
       CONSTANT HEAD     =           0.0000         CONSTANT HEAD     =           0.0000
               WELLS     =           0.0000                 WELLS     =           0.0000
     HEAD DEP BOUNDS     =     8726069.0000       HEAD DEP BOUNDS     =           0.2735
      STREAM LEAKAGE     =   357145984.0000        STREAM LEAKAGE     =           9.0894
        UZF RECHARGE     =   770586880.0000          UZF RECHARGE     =          21.3463
               GW ET     =           0.0000                 GW ET     =           0.0000
     SURFACE LEAKAGE     =           0.0000       SURFACE LEAKAGE     =           0.0000
    SUPPLEMENTARY WELLS  =           0.0000      SUPPLEMENTARY WELLS  =           0.0000

                TOTAL IN =  1168209280.0000                  TOTAL IN =          30.7437

          OUT:                                     OUT:
          ----                                     ----
             STORAGE     =   745002624.0000               STORAGE     =          17.3926
       CONSTANT HEAD     =           0.0000         CONSTANT HEAD     =           0.0000
               WELLS     =           0.0000                 WELLS     =           0.0000
     HEAD DEP BOUNDS     =     9098080.0000       HEAD DEP BOUNDS     =           0.2889
      STREAM LEAKAGE     =   330169600.0000        STREAM LEAKAGE     =          13.0417
        UZF RECHARGE     =           0.0000          UZF RECHARGE     =           0.0000
               GW ET     =    83779000.0000                 GW ET     =       1.7500E-02
     SURFACE LEAKAGE     =           0.0000       SURFACE LEAKAGE     =           0.0000
    SUPPLEMENTARY WELLS  =       36404.7930      SUPPLEMENTARY WELLS  =           0.0000

               TOTAL OUT =  1168085632.0000                 TOTAL OUT =          30.7407

                IN - OUT =      123648.0000                  IN - OUT =       2.9755E-03

     PERCENT DISCREPANCY =           0.01         PERCENT DISCREPANCY =           0.01






         TIME SUMMARY AT END OF TIME STEP   30 IN STRESS PERIOD   13
                    SECONDS     MINUTES      HOURS       DAYS        YEARS
                    -----------------------------------------------------------
   TIME STEP LENGTH  87600.      1460.0      24.333      1.0139     2.77588E-03
 STRESS PERIOD TIME 2.62800E+06  43800.      730.00      30.417     8.32763E-02
         TOTAL TIME 3.16224E+07 5.27040E+05  8784.0      366.00      1.0021    
1
1
                            STRESS PERIOD NO.   14, LENGTH =   2628000.    
                            -----------------------------------------------

                              NUMBER OF TIME STEPS =    30

                               MULTIPLIER FOR DELT =     1.000

                            INITIAL TIME STEP SIZE =   87600.00    

 WELL NO.  LAYER   ROW   COL   STRESS RATE         
 --------------------------------------------------
      1      1      6      4       0.000    
      2      1      6      7       0.000    
      3      1      7      4       0.000    
      4      1      7      5       0.000    
      5      1      8      4       0.000    
      6      1      8      5       0.000    
      7      1      9      4       0.000    
      8      1      9      5       0.000    
      9      1     10      4       0.000    
     10      1     10      5       0.000    

     10 WELLS

 REUSING NON-PARAMETER GHB CELLS FROM LAST STRESS PERIOD

      2 GHB CELLS

 REUSING STREAM SEGMENT DATA FROM LAST STRESS PERIOD



            AREAL INFILTRATION RATE
 READING ON UNIT   19 WITH FORMAT: (10F4.0)            

            1           2           3           4           5           6           7           8           9          10
 ........................................................................................................................
   1    0.000       0.000       0.000       0.000       0.000       0.000       0.000       0.000       0.000       0.000    
   2    0.000       0.000       0.000       0.000       0.000       0.000       0.000       0.000       0.000       0.000    
   3    0.000       0.000       0.000       0.000       0.000       0.000       0.000       0.000       0.000       0.000    
   4    0.000       0.000       0.000       0.000       0.000       0.000       0.000       0.000       0.000       0.000    
   5    0.000       0.000       0.000       0.000       0.000       0.000       0.000       0.000       0.000       0.000    
   6    0.000       0.000       0.000       0.000       0.000       0.000       0.000       0.000       0.000       0.000    
   7    0.000       0.000       0.000       0.000       0.000       0.000       0.000       0.000       0.000       0.000    
   8    0.000       0.000       0.000       0.000       0.000       0.000       0.000       0.000       0.000       0.000    
   9    0.000       0.000       0.000       0.000       0.000       0.000       0.000       0.000       0.000       0.000    
  10    0.000       0.000       0.000       0.000       0.000       0.000       0.000       0.000       0.000       0.000    
  11    0.000       0.000       0.000       0.000       0.000       0.000       0.000       0.000       0.000       0.000    
  12    0.000       0.000       0.000       0.000       0.000       0.000       0.000       0.000       0.000       0.000    
  13    0.000       0.000       0.000       0.000       0.000       0.000       0.000       0.000       0.000       0.000    
  14    0.000       0.000       0.000       0.000       0.000       0.000       0.000       0.000       0.000       0.000    
  15    0.000       0.000       0.000       0.000       0.000       0.000       0.000       0.000       0.000       0.000    

                  ET RATE =  1.000000E-10

 USING ET EXTINCTION DEPTH FROM PREVIOUS STRESS PERIOD. CURRENT PERIOD IS:      14

 USING EXTINCTION WATER CONTENT FROM PREVIOUS STRESS PERIOD. CURRENT PERIOD IS:      14

 PROCESSING AGO STRESS PERIOD DATA

 READING AGO STRESS PERIOD DATA

 READING IRRIGATION STREAM

 READING IRRIGATION WELL

 READING SUPPLEMENTAL WEL

 END PROCESSING AGO STRESS PERIOD DATA OPTIONS
 
 SOLVING FOR HEAD 
                                                   Max.-Head-Change                         Max.-Flux-Residual
  Residual-Control   Outer-Iter.   Inner-Iter.     Column Row Layer    Maximum-Head-Change  Column Row Layer    Maximum-Flux-Residual          L2-NORM 
          0                 1           2            10   10     1       0.4626843443E-02       2    1    1         0.2197865454E+00      0.1191827708E+01
          0                 2           2            10   10     1       0.2079235180E-02      10   10    1         0.5400482682E-01      0.3163530161E+00
          0                 3           2            10   10     1       0.9343763495E-03      10   10    1         0.2426896778E-01      0.1214265752E+00
          0                 4           2            10   10     1       0.4198938106E-03      10   10    1         0.1090609890E-01      0.5291553064E-01
          0                 5           2            10   10     1       0.1886933181E-03      10   10    1         0.4901025536E-02      0.2360303783E-01
          0                 6           1            10   10     1       0.8479553469E-04      10   10    1         0.2202439103E-02      0.1056674314E-01
          0                 7           1            10   10     1       0.3810560448E-04      10   10    1         0.9897380422E-03      0.4733417835E-02
          0                 8           1            10   10     1       0.1712395763E-04      10   10    1         0.4447705587E-03      0.2120642200E-02
          0                 9           1            10   10     1       0.7695180976E-05      10   10    1         0.1998716569E-03      0.9501382580E-03

    ------------------------------------------------
       NWT REQUIRED            9 OUTER ITERATIONS 
       AND A TOTAL OF         14 INNER ITERATIONS.
    ------------------------------------------------

 NO OUTPUT CONTROL FOR STRESS PERIOD   14   TIME STEP    1
 
 SOLVING FOR HEAD 
                                                   Max.-Head-Change                         Max.-Flux-Residual
  Residual-Control   Outer-Iter.   Inner-Iter.     Column Row Layer    Maximum-Head-Change  Column Row Layer    Maximum-Flux-Residual          L2-NORM 
          0                 1           2            10   10     1       0.4624125709E-02       2    1    1         0.2194476175E+00      0.1190335129E+01
          0                 2           2            10   10     1       0.2078010973E-02      10   10    1         0.5397309150E-01      0.3160177289E+00
          0                 3           2            10   10     1       0.9338249124E-03      10   10    1         0.2425467261E-01      0.1212918890E+00
          0                 4           2            10   10     1       0.4196454223E-03      10   10    1         0.1089965974E-01      0.5285566301E-01
          0                 5           2            10   10     1       0.1885814364E-03      10   10    1         0.4898125105E-02      0.2357624671E-01
          0                 6           1            10   10     1       0.8474514082E-04      10   10    1         0.2201132665E-02      0.1055474999E-01
          0                 7           1            10   10     1       0.3808290590E-04      10   10    1         0.9891495911E-03      0.4728047082E-02
          0                 8           1            10   10     1       0.1711373434E-04      10   10    1         0.4445055147E-03      0.2118235090E-02
          0                 9           1            10   10     1       0.7690576182E-05      10   10    1         0.1997522741E-03      0.9490598098E-03

    ------------------------------------------------
       NWT REQUIRED            9 OUTER ITERATIONS 
       AND A TOTAL OF         14 INNER ITERATIONS.
    ------------------------------------------------

 NO OUTPUT CONTROL FOR STRESS PERIOD   14   TIME STEP    2
 
 SOLVING FOR HEAD 
                                                   Max.-Head-Change                         Max.-Flux-Residual
  Residual-Control   Outer-Iter.   Inner-Iter.     Column Row Layer    Maximum-Head-Change  Column Row Layer    Maximum-Flux-Residual          L2-NORM 
          0                 1           2            10   10     1       0.4621404488E-02       2    1    1         0.2191113620E+00      0.1188989068E+01
          0                 2           2            10   10     1       0.2076785333E-02      10   10    1         0.5394131614E-01      0.3157018924E+00
          0                 3           2            10   10     1       0.9332728911E-03      10   10    1         0.2424036099E-01      0.1211621443E+00
          0                 4           2            10   10     1       0.4193967987E-03      10   10    1         0.1089321389E-01      0.5279779068E-01
          0                 5           2            10   10     1       0.1884694609E-03      10   10    1         0.4895221979E-02      0.2355032370E-01
          0                 6           1            10   10     1       0.8469470943E-04      10   10    1         0.2199825153E-02      0.1054313761E-01
          0                 7           1            10   10     1       0.3806019382E-04      10   10    1         0.9885607273E-03      0.4725471974E-02
          0                 8           1            10   10     1       0.1710350530E-04      10   10    1         0.4442403031E-03      0.2122608389E-02
          0                 9           1            10   10     1       0.7685969637E-05      10   10    1         0.1996328330E-03      0.9480720857E-03

    ------------------------------------------------
       NWT REQUIRED            9 OUTER ITERATIONS 
       AND A TOTAL OF         14 INNER ITERATIONS.
    ------------------------------------------------

 NO OUTPUT CONTROL FOR STRESS PERIOD   14   TIME STEP    3
 
 SOLVING FOR HEAD 
                                                   Max.-Head-Change                         Max.-Flux-Residual
  Residual-Control   Outer-Iter.   Inner-Iter.     Column Row Layer    Maximum-Head-Change  Column Row Layer    Maximum-Flux-Residual          L2-NORM 
          0                 1           2            10   10     1       0.4618679876E-02       2    1    1         0.2187777586E+00      0.1187494983E+01
          0                 2           2            10   10     1       0.2075558084E-02      10   10    1         0.5390950077E-01      0.3153658885E+00
          0                 3           2            10   10     1       0.9327201089E-03      10   10    1         0.2422603042E-01      0.1210319603E+00
          0                 4           2            10   10     1       0.4191478161E-03      10   10    1         0.1088675907E-01      0.5274052808E-01
          0                 5           2            10   10     1       0.1883573161E-03      10   10    1         0.4892314620E-02      0.2352473107E-01
          0                 6           1            10   10     1       0.8464419900E-04      10   10    1         0.2198515651E-02      0.1053167599E-01
          0                 7           1            10   10     1       0.3803744397E-04      10   10    1         0.9879709233E-03      0.4717710280E-02
          0                 8           1            10   10     1       0.1709325875E-04      10   10    1         0.4439746575E-03      0.2113603751E-02
          0                 9           1            10   10     1       0.7681354838E-05      10   10    1         0.1995131929E-03      0.9469845753E-03

    ------------------------------------------------
       NWT REQUIRED            9 OUTER ITERATIONS 
       AND A TOTAL OF         14 INNER ITERATIONS.
    ------------------------------------------------

 NO OUTPUT CONTROL FOR STRESS PERIOD   14   TIME STEP    4
 
 SOLVING FOR HEAD 
                                                   Max.-Head-Change                         Max.-Flux-Residual
  Residual-Control   Outer-Iter.   Inner-Iter.     Column Row Layer    Maximum-Head-Change  Column Row Layer    Maximum-Flux-Residual          L2-NORM 
          0                 1           2            10   10     1       0.4615843064E-02       2    1    1         0.2184455821E+00      0.1185949837E+01
          0                 2           2            10   10     1       0.2074280595E-02      10   10    1         0.5387637666E-01      0.3150271203E+00
          0                 3           2            10   10     1       0.9321448303E-03      10   10    1         0.2421111382E-01      0.1209006956E+00
          0                 4           2            10   10     1       0.4188887598E-03      10   10    1         0.1088004184E-01      0.5268270541E-01
          0                 5           2            10   10     1       0.1882406611E-03      10   10    1         0.4889289763E-02      0.2349891006E-01
          0                 6           1            10   10     1       0.8459166868E-04      10   10    1         0.2197153530E-02      0.1052012563E-01
          0                 7           1            10   10     1       0.3801378971E-04      10   10    1         0.9873575568E-03      0.4712540462E-02
          0                 8           1            10   10     1       0.1708260752E-04      10   10    1         0.4436984614E-03      0.2111288570E-02
          0                 9           1            10   10     1       0.7676558709E-05      10   10    1         0.1993888242E-03      0.9459467411E-03

    ------------------------------------------------
       NWT REQUIRED            9 OUTER ITERATIONS 
       AND A TOTAL OF         14 INNER ITERATIONS.
    ------------------------------------------------

 NO OUTPUT CONTROL FOR STRESS PERIOD   14   TIME STEP    5
 
 SOLVING FOR HEAD 
                                                   Max.-Head-Change                         Max.-Flux-Residual
  Residual-Control   Outer-Iter.   Inner-Iter.     Column Row Layer    Maximum-Head-Change  Column Row Layer    Maximum-Flux-Residual          L2-NORM 
          0                 1           2            10   10     1       0.4613112365E-02       2    1    1         0.2181171894E+00      0.1184770749E+01
          0                 2           2            10   10     1       0.2073050659E-02      10   10    1         0.5384449049E-01      0.3147166769E+00
          0                 3           2            10   10     1       0.9315908616E-03      10   10    1         0.2419675198E-01      0.1207700820E+00
          0                 4           2            10   10     1       0.4186392533E-03      10   10    1         0.1087357322E-01      0.5262471828E-01
          0                 5           2            10   10     1       0.1881282855E-03      10   10    1         0.4886376320E-02      0.2347305113E-01
          0                 6           1            10   10     1       0.8454105646E-04      10   10    1         0.2195841345E-02      0.1050857153E-01
          0                 7           1            10   10     1       0.3799099484E-04      10   10    1         0.9867665704E-03      0.4707372120E-02
          0                 8           1            10   10     1       0.1707234146E-04      10   10    1         0.4434322975E-03      0.2108976713E-02
          0                 9           1            10   10     1       0.7671935156E-05      10   10    1         0.1992689515E-03      0.9449157111E-03

    ------------------------------------------------
       NWT REQUIRED            9 OUTER ITERATIONS 
       AND A TOTAL OF         14 INNER ITERATIONS.
    ------------------------------------------------

 NO OUTPUT CONTROL FOR STRESS PERIOD   14   TIME STEP    6
 
 SOLVING FOR HEAD 
                                                   Max.-Head-Change                         Max.-Flux-Residual
  Residual-Control   Outer-Iter.   Inner-Iter.     Column Row Layer    Maximum-Head-Change  Column Row Layer    Maximum-Flux-Residual          L2-NORM 
          0                 1           2            10   10     1       0.4610269431E-02       2    1    1         0.2177913618E+00      0.1183567968E+01
          0                 2           2            10   10     1       0.2071770358E-02      10   10    1         0.5381129462E-01      0.3144073167E+00
          0                 3           2            10   10     1       0.9310142918E-03      10   10    1         0.2418180242E-01      0.1206412116E+00
          0                 4           2            10   10     1       0.4183796050E-03      10   10    1         0.1086684087E-01      0.5256731645E-01
          0                 5           2            10   10     1       0.1880113588E-03      10   10    1         0.4883344527E-02      0.2344735043E-01
          0                 6           1            10   10     1       0.8448840183E-04      10   10    1         0.2194476050E-02      0.1049705733E-01
          0                 7           1            10   10     1       0.3796728357E-04      10   10    1         0.9861517493E-03      0.4702212252E-02
          0                 8           1            10   10     1       0.1706166397E-04      10   10    1         0.4431554348E-03      0.2106662852E-02
          0                 9           1            10   10     1       0.7667127271E-05      10   10    1         0.1991442791E-03      0.9438738752E-03

    ------------------------------------------------
       NWT REQUIRED            9 OUTER ITERATIONS 
       AND A TOTAL OF         14 INNER ITERATIONS.
    ------------------------------------------------

 NO OUTPUT CONTROL FOR STRESS PERIOD   14   TIME STEP    7
 
 SOLVING FOR HEAD 
                                                   Max.-Head-Change                         Max.-Flux-Residual
  Residual-Control   Outer-Iter.   Inner-Iter.     Column Row Layer    Maximum-Head-Change  Column Row Layer    Maximum-Flux-Residual          L2-NORM 
          0                 1           2            10   10     1       0.4607532625E-02       2    1    1         0.2174668750E+00      0.1182365151E+01
          0                 2           2            10   10     1       0.2070537726E-02      10   10    1         0.5377933740E-01      0.3141009134E+00
          0                 3           2            10   10     1       0.9304591341E-03      10   10    1         0.2416740922E-01      0.1205125907E+00
          0                 4           2            10   10     1       0.4181295743E-03      10   10    1         0.1086035842E-01      0.5250981298E-01
          0                 5           2            10   10     1       0.1878987523E-03      10   10    1         0.4880424986E-02      0.2342157996E-01
          0                 6           1            10   10     1       0.8443768782E-04      10   10    1         0.2193161177E-02      0.1048550978E-01
          0                 7           1            10   10     1       0.3794444443E-04      10   10    1         0.9855595809E-03      0.4697037634E-02
          0                 8           1            10   10     1       0.1705137815E-04      10   10    1         0.4428887457E-03      0.2104343629E-02
          0                 9           1            10   10     1       0.7662494965E-05      10   10    1         0.1990241762E-03      0.9428349776E-03

    ------------------------------------------------
       NWT REQUIRED            9 OUTER ITERATIONS 
       AND A TOTAL OF         14 INNER ITERATIONS.
    ------------------------------------------------

 NO OUTPUT CONTROL FOR STRESS PERIOD   14   TIME STEP    8
 
 SOLVING FOR HEAD 
                                                   Max.-Head-Change                         Max.-Flux-Residual
  Residual-Control   Outer-Iter.   Inner-Iter.     Column Row Layer    Maximum-Head-Change  Column Row Layer    Maximum-Flux-Residual          L2-NORM 
          0                 1           2            10   10     1       0.4604683751E-02       2    1    1         0.2171460884E+00      0.1181278353E+01
          0                 2           2            10   10     1       0.2069254804E-02      10   10    1         0.5374607245E-01      0.3138059257E+00
          0                 3           2            10   10     1       0.9298814089E-03      10   10    1         0.2415242919E-01      0.1203859681E+00
          0                 4           2            10   10     1       0.4178694165E-03      10   10    1         0.1085361263E-01      0.5245297831E-01
          0                 5           2            10   10     1       0.1877816010E-03      10   10    1         0.4877387266E-02      0.2339609241E-01
          0                 6           1            10   10     1       0.8438493439E-04      10   10    1         0.2191793269E-02      0.1047408722E-01
          0                 7           1            10   10     1       0.3792068938E-04      10   10    1         0.9849436063E-03      0.4691918892E-02
          0                 8           1            10   10     1       0.1704068166E-04      10   10    1         0.4426113744E-03      0.2102049439E-02
          0                 9           1            10   10     1       0.7657678326E-05      10   10    1         0.1988992744E-03      0.9418066517E-03

    ------------------------------------------------
       NWT REQUIRED            9 OUTER ITERATIONS 
       AND A TOTAL OF         14 INNER ITERATIONS.
    ------------------------------------------------

 NO OUTPUT CONTROL FOR STRESS PERIOD   14   TIME STEP    9
 
 SOLVING FOR HEAD 
                                                   Max.-Head-Change                         Max.-Flux-Residual
  Residual-Control   Outer-Iter.   Inner-Iter.     Column Row Layer    Maximum-Head-Change  Column Row Layer    Maximum-Flux-Residual          L2-NORM 
          0                 1           2            10   10     1       0.4601941216E-02       2    1    1         0.2168266041E+00      0.1179927330E+01
          0                 2           2            10   10     1       0.2068019645E-02      10   10    1         0.5371404857E-01      0.3134861412E+00
          0                 3           2            10   10     1       0.9293251359E-03      10   10    1         0.2413800659E-01      0.1202586405E+00
          0                 4           2            10   10     1       0.4176188936E-03      10   10    1         0.1084711720E-01      0.5239659030E-01
          0                 5           2            10   10     1       0.1876687775E-03      10   10    1         0.4874462001E-02      0.2337085497E-01
          0                 6           1            10   10     1       0.8433412434E-04      10   10    1         0.2190475868E-02      0.1046278055E-01
          0                 7           1            10   10     1       0.3789780797E-04      10   10    1         0.9843503235E-03      0.4686852777E-02
          0                 8           1            10   10     1       0.1703037708E-04      10   10    1         0.4423441934E-03      0.2099779477E-02
          0                 9           1            10   10     1       0.7653038016E-05      10   10    1         0.1987789547E-03      0.9407897364E-03

    ------------------------------------------------
       NWT REQUIRED            9 OUTER ITERATIONS 
       AND A TOTAL OF         14 INNER ITERATIONS.
    ------------------------------------------------

 NO OUTPUT CONTROL FOR STRESS PERIOD   14   TIME STEP   10
 
 SOLVING FOR HEAD 
                                                   Max.-Head-Change                         Max.-Flux-Residual
  Residual-Control   Outer-Iter.   Inner-Iter.     Column Row Layer    Maximum-Head-Change  Column Row Layer    Maximum-Flux-Residual          L2-NORM 
          0                 1           2            10   10     1       0.4599086772E-02       2    1    1         0.2165107663E+00      0.1178677885E+01
          0                 2           2            10   10     1       0.2066734266E-02      10   10    1         0.5368071881E-01      0.3131833178E+00
          0                 3           2            10   10     1       0.9287463269E-03      10   10    1         0.2412299797E-01      0.1201337404E+00
          0                 4           2            10   10     1       0.4173582581E-03      10   10    1         0.1084035881E-01      0.5234072187E-01
          0                 5           2            10   10     1       0.1875514153E-03      10   10    1         0.4871418722E-02      0.2334579462E-01
          0                 6           1            10   10     1       0.8428127812E-04      10   10    1         0.2189105512E-02      0.1045154543E-01
          0                 7           1            10   10     1       0.3787401216E-04      10   10    1         0.9837332706E-03      0.4681816617E-02
          0                 8           1            10   10     1       0.1701966232E-04      10   10    1         0.4420663479E-03      0.2097521834E-02
          0                 9           1            10   10     1       0.7648213624E-05      10   10    1         0.1986538507E-03      0.9397770906E-03

    ------------------------------------------------
       NWT REQUIRED            9 OUTER ITERATIONS 
       AND A TOTAL OF         14 INNER ITERATIONS.
    ------------------------------------------------

 NO OUTPUT CONTROL FOR STRESS PERIOD   14   TIME STEP   11
 
 SOLVING FOR HEAD 
                                                   Max.-Head-Change                         Max.-Flux-Residual
  Residual-Control   Outer-Iter.   Inner-Iter.     Column Row Layer    Maximum-Head-Change  Column Row Layer    Maximum-Flux-Residual          L2-NORM 
          0                 1           2            10   10     1       0.4596338867E-02       2    1    1         0.2161961699E+00      0.1177647103E+01
          0                 2           2            10   10     1       0.2065496740E-02      10   10    1         0.5364863248E-01      0.3128908238E+00
          0                 3           2            10   10     1       0.9281890110E-03      10   10    1         0.2410854783E-01      0.1200043855E+00
          0                 4           2            10   10     1       0.4171072762E-03      10   10    1         0.1083385125E-01      0.5228223839E-01
          0                 5           2            10   10     1       0.1874383894E-03      10   10    1         0.4868488108E-02      0.2331948453E-01
          0                 6           1            10   10     1       0.8423037903E-04      10   10    1         0.2187785753E-02      0.1043972776E-01
          0                 7           1            10   10     1       0.3785109073E-04      10   10    1         0.9831389444E-03      0.4676511615E-02
          0                 8           1            10   10     1       0.1700934074E-04      10   10    1         0.4417987121E-03      0.2095141651E-02
          0                 9           1            10   10     1       0.7643565811E-05      10   10    1         0.1985333295E-03      0.9387104189E-03

    ------------------------------------------------
       NWT REQUIRED            9 OUTER ITERATIONS 
       AND A TOTAL OF         14 INNER ITERATIONS.
    ------------------------------------------------

 NO OUTPUT CONTROL FOR STRESS PERIOD   14   TIME STEP   12
 
 SOLVING FOR HEAD 
                                                   Max.-Head-Change                         Max.-Flux-Residual
  Residual-Control   Outer-Iter.   Inner-Iter.     Column Row Layer    Maximum-Head-Change  Column Row Layer    Maximum-Flux-Residual          L2-NORM 
          0                 1           2            10   10     1       0.4593479010E-02       2    1    1         0.2158839876E+00      0.1176788446E+01
          0                 2           2            10   10     1       0.2064208868E-02      10   10    1         0.5361523927E-01      0.3125939691E+00
          0                 3           2            10   10     1       0.9276090553E-03      10   10    1         0.2409351000E-01      0.1198643653E+00
          0                 4           2            10   10     1       0.4168461132E-03      10   10    1         0.1082707941E-01      0.5221861098E-01
          0                 5           2            10   10     1       0.1873207855E-03      10   10    1         0.4865438657E-02      0.2329097253E-01
          0                 6           1            10   10     1       0.8417742176E-04      10   10    1         0.2186412564E-02      0.1042698166E-01
          0                 7           1            10   10     1       0.3782724439E-04      10   10    1         0.9825205964E-03      0.4670815251E-02
          0                 8           1            10   10     1       0.1699860297E-04      10   10    1         0.4415202742E-03      0.2092594930E-02
          0                 9           1            10   10     1       0.7638730414E-05      10   10    1         0.1984079501E-03      0.9375714679E-03

    ------------------------------------------------
       NWT REQUIRED            9 OUTER ITERATIONS 
       AND A TOTAL OF         14 INNER ITERATIONS.
    ------------------------------------------------

 NO OUTPUT CONTROL FOR STRESS PERIOD   14   TIME STEP   13
 
 SOLVING FOR HEAD 
                                                   Max.-Head-Change                         Max.-Flux-Residual
  Residual-Control   Outer-Iter.   Inner-Iter.     Column Row Layer    Maximum-Head-Change  Column Row Layer    Maximum-Flux-Residual          L2-NORM 
          0                 1           2            10   10     1       0.4590616701E-02       2    1    1         0.2155753743E+00      0.1175962442E+01
          0                 2           2            10   10     1       0.2062920027E-02      10   10    1         0.5358181805E-01      0.3123257859E+00
          0                 3           2            10   10     1       0.9270287226E-03      10   10    1         0.2407846112E-01      0.1197407967E+00
          0                 4           2            10   10     1       0.4165848069E-03      10   10    1         0.1082030329E-01      0.5216249258E-01
          0                 5           2            10   10     1       0.1872031287E-03      10   10    1         0.4862387585E-02      0.2326579733E-01
          0                 6           1            10   10     1       0.8412444599E-04      10   10    1         0.2185038780E-02      0.1041570820E-01
          0                 7           1            10   10     1       0.3780339205E-04      10   10    1         0.9819020375E-03      0.4665766324E-02
          0                 8           1            10   10     1       0.1698786321E-04      10   10    1         0.4412417591E-03      0.2090333230E-02
          0                 9           1            10   10     1       0.7633895017E-05      10   10    1         0.1982825479E-03      0.9365613225E-03

    ------------------------------------------------
       NWT REQUIRED            9 OUTER ITERATIONS 
       AND A TOTAL OF         14 INNER ITERATIONS.
    ------------------------------------------------

 NO OUTPUT CONTROL FOR STRESS PERIOD   14   TIME STEP   14
 
 SOLVING FOR HEAD 
                                                   Max.-Head-Change                         Max.-Flux-Residual
  Residual-Control   Outer-Iter.   Inner-Iter.     Column Row Layer    Maximum-Head-Change  Column Row Layer    Maximum-Flux-Residual          L2-NORM 
          0                 1           2            10   10     1       0.4587861240E-02       2    1    1         0.2152679326E+00      0.1175030511E+01
          0                 2           2            10   10     1       0.2061679175E-02      10   10    1         0.5354964385E-01      0.3120406034E+00
          0                 3           2            10   10     1       0.9264699435E-03      10   10    1         0.2406397232E-01      0.1196154833E+00
          0                 4           2            10   10     1       0.4163331817E-03      10   10    1         0.1081377873E-01      0.5210649105E-01
          0                 5           2            10   10     1       0.1870898202E-03      10   10    1         0.4859449501E-02      0.2324078626E-01
          0                 6           1            10   10     1       0.8407342259E-04      10   10    1         0.2183715741E-02      0.1040452489E-01
          0                 7           1            10   10     1       0.3778041660E-04      10   10    1         0.9813062757E-03      0.4660760586E-02
          0                 8           1            10   10     1       0.1697751761E-04      10   10    1         0.4409734946E-03      0.2088091283E-02
          0                 9           1            10   10     1       0.7629236699E-05      10   10    1         0.1981617553E-03      0.9355527904E-03

    ------------------------------------------------
       NWT REQUIRED            9 OUTER ITERATIONS 
       AND A TOTAL OF         14 INNER ITERATIONS.
    ------------------------------------------------

 NO OUTPUT CONTROL FOR STRESS PERIOD   14   TIME STEP   15
 
 SOLVING FOR HEAD 
                                                   Max.-Head-Change                         Max.-Flux-Residual
  Residual-Control   Outer-Iter.   Inner-Iter.     Column Row Layer    Maximum-Head-Change  Column Row Layer    Maximum-Flux-Residual          L2-NORM 
          0                 1           2            10   10     1       0.4584994063E-02       2    1    1         0.2149628293E+00      0.1173974283E+01
          0                 2           2            10   10     1       0.2060388083E-02      10   10    1         0.5351616552E-01      0.3117618528E+00
          0                 3           2            10   10     1       0.9258885711E-03      10   10    1         0.2404889703E-01      0.1194965888E+00
          0                 4           2            10   10     1       0.4160713955E-03      10   10    1         0.1080699042E-01      0.5205287983E-01
          0                 5           2            10   10     1       0.1869719421E-03      10   10    1         0.4856392801E-02      0.2321661154E-01
          0                 6           1            10   10     1       0.8402034478E-04      10   10    1         0.2182339361E-02      0.1039364279E-01
          0                 7           1            10   10     1       0.3775651674E-04      10   10    1         0.9806865214E-03      0.4655869358E-02
          0                 8           1            10   10     1       0.1696675658E-04      10   10    1         0.4406944381E-03      0.2085892185E-02
          0                 9           1            10   10     1       0.7624391298E-05      10   10    1         0.1980361019E-03      0.9345713201E-03

    ------------------------------------------------
       NWT REQUIRED            9 OUTER ITERATIONS 
       AND A TOTAL OF         14 INNER ITERATIONS.
    ------------------------------------------------

 NO OUTPUT CONTROL FOR STRESS PERIOD   14   TIME STEP   16
 
 SOLVING FOR HEAD 
                                                   Max.-Head-Change                         Max.-Flux-Residual
  Residual-Control   Outer-Iter.   Inner-Iter.     Column Row Layer    Maximum-Head-Change  Column Row Layer    Maximum-Flux-Residual          L2-NORM 
          0                 1           2            10   10     1       0.4582124498E-02       2    1    1         0.2146600401E+00      0.1173273321E+01
          0                 2           2            10   10     1       0.2059095941E-02      10   10    1         0.5348265943E-01      0.3115091559E+00
          0                 3           2            10   10     1       0.9253067371E-03      10   10    1         0.2403380954E-01      0.1193767855E+00
          0                 4           2            10   10     1       0.4158094072E-03      10   10    1         0.1080019674E-01      0.5199817709E-01
          0                 5           2            10   10     1       0.1868539747E-03      10   10    1         0.4853333738E-02      0.2319199763E-01
          0                 6           1            10   10     1       0.8396722769E-04      10   10    1         0.2180961944E-02      0.1038259598E-01
          0                 7           1            10   10     1       0.3773260012E-04      10   10    1         0.9800663128E-03      0.4650912347E-02
          0                 8           1            10   10     1       0.1695598780E-04      10   10    1         0.4404151802E-03      0.2083670293E-02
          0                 9           1            10   10     1       0.7619542645E-05      10   10    1         0.1979103656E-03      0.9335686864E-03

    ------------------------------------------------
       NWT REQUIRED            9 OUTER ITERATIONS 
       AND A TOTAL OF         14 INNER ITERATIONS.
    ------------------------------------------------

 NO OUTPUT CONTROL FOR STRESS PERIOD   14   TIME STEP   17
 
 SOLVING FOR HEAD 
                                                   Max.-Head-Change                         Max.-Flux-Residual
  Residual-Control   Outer-Iter.   Inner-Iter.     Column Row Layer    Maximum-Head-Change  Column Row Layer    Maximum-Flux-Residual          L2-NORM 
          0                 1           2            10   10     1       0.4579252832E-02       2    1    1         0.2143595410E+00      0.1172362158E+01
          0                 2           2            10   10     1       0.2057802985E-02      10   10    1         0.5344912943E-01      0.3112407301E+00
          0                 3           2            10   10     1       0.9247245959E-03      10   10    1         0.2401871283E-01      0.1192562580E+00
          0                 4           2            10   10     1       0.4155473063E-03      10   10    1         0.1079339960E-01      0.5194365265E-01
          0                 5           2            10   10     1       0.1867359691E-03      10   10    1         0.4850273433E-02      0.2316750345E-01
          0                 6           1            10   10     1       0.8391409860E-04      10   10    1         0.2179584106E-02      0.1037161169E-01
          0                 7           1            10   10     1       0.3770868025E-04      10   10    1         0.9794459751E-03      0.4645988112E-02
          0                 8           1            10   10     1       0.1694521852E-04      10   10    1         0.4401358902E-03      0.2081462926E-02
          0                 9           1            10   10     1       0.7614694242E-05      10   10    1         0.1977846270E-03      0.9325809890E-03

    ------------------------------------------------
       NWT REQUIRED            9 OUTER ITERATIONS 
       AND A TOTAL OF         14 INNER ITERATIONS.
    ------------------------------------------------

 NO OUTPUT CONTROL FOR STRESS PERIOD   14   TIME STEP   18
 
 SOLVING FOR HEAD 
                                                   Max.-Head-Change                         Max.-Flux-Residual
  Residual-Control   Outer-Iter.   Inner-Iter.     Column Row Layer    Maximum-Head-Change  Column Row Layer    Maximum-Flux-Residual          L2-NORM 
          0                 1           2            10   10     1       0.4576379145E-02       2    1    1         0.2140613103E+00      0.1171731537E+01
          0                 2           2            10   10     1       0.2056509035E-02      10   10    1         0.5341557544E-01      0.3109968992E+00
          0                 3           2            10   10     1       0.9241419697E-03      10   10    1         0.2400360434E-01      0.1191367283E+00
          0                 4           2            10   10     1       0.4152849706E-03      10   10    1         0.1078659672E-01      0.5188889021E-01
          0                 5           2            10   10     1       0.1866178501E-03      10   10    1         0.4847210346E-02      0.2314286880E-01
          0                 6           1            10   10     1       0.8386091499E-04      10   10    1         0.2178204927E-02      0.1036056409E-01
          0                 7           1            10   10     1       0.3768473462E-04      10   10    1         0.9788249987E-03      0.4641036224E-02
          0                 8           1            10   10     1       0.1693443724E-04      10   10    1         0.4398562975E-03      0.2079243292E-02
          0                 9           1            10   10     1       0.7609840087E-05      10   10    1         0.1976587400E-03      0.9315850649E-03

    ------------------------------------------------
       NWT REQUIRED            9 OUTER ITERATIONS 
       AND A TOTAL OF         14 INNER ITERATIONS.
    ------------------------------------------------

 NO OUTPUT CONTROL FOR STRESS PERIOD   14   TIME STEP   19
 
 SOLVING FOR HEAD 
                                                   Max.-Head-Change                         Max.-Flux-Residual
  Residual-Control   Outer-Iter.   Inner-Iter.     Column Row Layer    Maximum-Head-Change  Column Row Layer    Maximum-Flux-Residual          L2-NORM 
          0                 1           2            10   10     1       0.4573503329E-02       2    1    1         0.2137653298E+00      0.1170233090E+01
          0                 2           2            10   10     1       0.2055214152E-02      10   10    1         0.5338199671E-01      0.3106368703E+00
          0                 3           2            10   10     1       0.9235589346E-03      10   10    1         0.2398848500E-01      0.1190074073E+00
          0                 4           2            10   10     1       0.4150224558E-03      10   10    1         0.1077978909E-01      0.5183364376E-01
          0                 5           2            10   10     1       0.1864996531E-03      10   10    1         0.4844145183E-02      0.2311831343E-01
          0                 6           1            10   10     1       0.8380769762E-04      10   10    1         0.2176824839E-02      0.1034957159E-01
          0                 7           1            10   10     1       0.3766077398E-04      10   10    1         0.9782036209E-03      0.4636109371E-02
          0                 8           1            10   10     1       0.1692364920E-04      10   10    1         0.4395765276E-03      0.2077034358E-02
          0                 9           1            10   10     1       0.7604983181E-05      10   10    1         0.1975327814E-03      0.9305939553E-03

    ------------------------------------------------
       NWT REQUIRED            9 OUTER ITERATIONS 
       AND A TOTAL OF         14 INNER ITERATIONS.
    ------------------------------------------------

 NO OUTPUT CONTROL FOR STRESS PERIOD   14   TIME STEP   20
 
 SOLVING FOR HEAD 
                                                   Max.-Head-Change                         Max.-Flux-Residual
  Residual-Control   Outer-Iter.   Inner-Iter.     Column Row Layer    Maximum-Head-Change  Column Row Layer    Maximum-Flux-Residual          L2-NORM 
          0                 1           2            10   10     1       0.4570625473E-02       2    1    1         0.2134715692E+00      0.1169183155E+01
          0                 2           2            10   10     1       0.2053918374E-02      10   10    1         0.5334839427E-01      0.3103444438E+00
          0                 3           2            10   10     1       0.9229755066E-03      10   10    1         0.2397335525E-01      0.1188855363E+00
          0                 4           2            10   10     1       0.4147597692E-03      10   10    1         0.1077297690E-01      0.5177939500E-01
          0                 5           2            10   10     1       0.1863813801E-03      10   10    1         0.4841078016E-02      0.2309400215E-01
          0                 6           1            10   10     1       0.8375444672E-04      10   10    1         0.2175443876E-02      0.1033866984E-01
          0                 7           1            10   10     1       0.3763679884E-04      10   10    1         0.9775818641E-03      0.4631221300E-02
          0                 8           1            10   10     1       0.1691285515E-04      10   10    1         0.4392965953E-03      0.2074844017E-02
          0                 9           1            10   10     1       0.7600123273E-05      10   10    1         0.1974067445E-03      0.9296131764E-03

    ------------------------------------------------
       NWT REQUIRED            9 OUTER ITERATIONS 
       AND A TOTAL OF         14 INNER ITERATIONS.
    ------------------------------------------------

 NO OUTPUT CONTROL FOR STRESS PERIOD   14   TIME STEP   21
 
 SOLVING FOR HEAD 
                                                   Max.-Head-Change                         Max.-Flux-Residual
  Residual-Control   Outer-Iter.   Inner-Iter.     Column Row Layer    Maximum-Head-Change  Column Row Layer    Maximum-Flux-Residual          L2-NORM 
          0                 1           2            10   10     1       0.4567745659E-02       2    1    1         0.2131800079E+00      0.1168342516E+01
          0                 2           2            10   10     1       0.2052621739E-02      10   10    1         0.5331476909E-01      0.3100907140E+00
          0                 3           2            10   10     1       0.9223917029E-03      10   10    1         0.2395821555E-01      0.1187703123E+00
          0                 4           2            10   10     1       0.4144969177E-03      10   10    1         0.1076616034E-01      0.5172684310E-01
          0                 5           2            10   10     1       0.1862630353E-03      10   10    1         0.4838008933E-02      0.2307025716E-01
          0                 6           1            10   10     1       0.8370116432E-04      10   10    1         0.2174062068E-02      0.1032797406E-01
          0                 7           1            10   10     1       0.3761280944E-04      10   10    1         0.9769597311E-03      0.4626409414E-02
          0                 8           1            10   10     1       0.1690205486E-04      10   10    1         0.4390164996E-03      0.2072679993E-02
          0                 9           1            10   10     1       0.7595260864E-05      10   10    1         0.1972806429E-03      0.9286396996E-03

    ------------------------------------------------
       NWT REQUIRED            9 OUTER ITERATIONS 
       AND A TOTAL OF         14 INNER ITERATIONS.
    ------------------------------------------------

 NO OUTPUT CONTROL FOR STRESS PERIOD   14   TIME STEP   22
 
 SOLVING FOR HEAD 
                                                   Max.-Head-Change                         Max.-Flux-Residual
  Residual-Control   Outer-Iter.   Inner-Iter.     Column Row Layer    Maximum-Head-Change  Column Row Layer    Maximum-Flux-Residual          L2-NORM 
          0                 1           2            10   10     1       0.4564863772E-02       2    1    1         0.2128894394E+00      0.1167770850E+01
          0                 2           2            10   10     1       0.2051324084E-02      10   10    1         0.5328111929E-01      0.3098500954E+00
          0                 3           2            10   10     1       0.9218074037E-03      10   10    1         0.2394306378E-01      0.1186518824E+00
          0                 4           2            10   10     1       0.4142338259E-03      10   10    1         0.1075933791E-01      0.5167268717E-01
          0                 5           2            10   10     1       0.1861445752E-03      10   10    1         0.4834937021E-02      0.2304592661E-01
          0                 6           1            10   10     1       0.8364782689E-04      10   10    1         0.2172678904E-02      0.1031707326E-01
          0                 7           1            10   10     1       0.3758879428E-04      10   10    1         0.9763369531E-03      0.4621527079E-02
          0                 8           1            10   10     1       0.1689124181E-04      10   10    1         0.4387360889E-03      0.2070492945E-02
          0                 9           1            10   10     1       0.7590392453E-05      10   10    1         0.1971543893E-03      0.9276595308E-03

    ------------------------------------------------
       NWT REQUIRED            9 OUTER ITERATIONS 
       AND A TOTAL OF         14 INNER ITERATIONS.
    ------------------------------------------------

 NO OUTPUT CONTROL FOR STRESS PERIOD   14   TIME STEP   23
 
 SOLVING FOR HEAD 
                                                   Max.-Head-Change                         Max.-Flux-Residual
  Residual-Control   Outer-Iter.   Inner-Iter.     Column Row Layer    Maximum-Head-Change  Column Row Layer    Maximum-Flux-Residual          L2-NORM 
          0                 1           2            10   10     1       0.4561979901E-02       2    1    1         0.2126022265E+00      0.1167042188E+01
          0                 2           2            10   10     1       0.2050025670E-02      10   10    1         0.5324744696E-01      0.3095925408E+00
          0                 3           2            10   10     1       0.9212228212E-03      10   10    1         0.2392790341E-01      0.1185319315E+00
          0                 4           2            10   10     1       0.4139706341E-03      10   10    1         0.1075251230E-01      0.5161861961E-01
          0                 5           2            10   10     1       0.1860260811E-03      10   10    1         0.4831863981E-02      0.2302177290E-01
          0                 6           1            10   10     1       0.8359447920E-04      10   10    1         0.2171295373E-02      0.1030628178E-01
          0                 7           1            10   10     1       0.3756477686E-04      10   10    1         0.9757140745E-03      0.4616704684E-02
          0                 8           1            10   10     1       0.1688042926E-04      10   10    1         0.4384556678E-03      0.2068329364E-02
          0                 9           1            10   10     1       0.7585524542E-05      10   10    1         0.1970281433E-03      0.9266904275E-03

    ------------------------------------------------
       NWT REQUIRED            9 OUTER ITERATIONS 
       AND A TOTAL OF         14 INNER ITERATIONS.
    ------------------------------------------------

 NO OUTPUT CONTROL FOR STRESS PERIOD   14   TIME STEP   24
 
 SOLVING FOR HEAD 
                                                   Max.-Head-Change                         Max.-Flux-Residual
  Residual-Control   Outer-Iter.   Inner-Iter.     Column Row Layer    Maximum-Head-Change  Column Row Layer    Maximum-Flux-Residual          L2-NORM 
          0                 1           2            10   10     1       0.4559094327E-02       2    1    1         0.2123171446E+00      0.1166211633E+01
          0                 2           2            10   10     1       0.2048726513E-02      10   10    1         0.5321375486E-01      0.3092754253E+00
          0                 3           2            10   10     1       0.9206379147E-03      10   10    1         0.2391273442E-01      0.1183843431E+00
          0                 4           2            10   10     1       0.4137073004E-03      10   10    1         0.1074568293E-01      0.5155163310E-01
          0                 5           2            10   10     1       0.1859075260E-03      10   10    1         0.4828789305E-02      0.2299160667E-01
          0                 6           1            10   10     1       0.8354110500E-04      10   10    1         0.2169911124E-02      0.1029271395E-01
          0                 7           1            10   10     1       0.3754074794E-04      10   10    1         0.9750908815E-03      0.4610600270E-02
          0                 8           1            10   10     1       0.1686961145E-04      10   10    1         0.4381751040E-03      0.2065590864E-02
          0                 9           1            10   10     1       0.7580654379E-05      10   10    1         0.1969018339E-03      0.9254604915E-03

    ------------------------------------------------
       NWT REQUIRED            9 OUTER ITERATIONS 
       AND A TOTAL OF         14 INNER ITERATIONS.
    ------------------------------------------------

 NO OUTPUT CONTROL FOR STRESS PERIOD   14   TIME STEP   25
 
 SOLVING FOR HEAD 
                                                   Max.-Head-Change                         Max.-Flux-Residual
  Residual-Control   Outer-Iter.   Inner-Iter.     Column Row Layer    Maximum-Head-Change  Column Row Layer    Maximum-Flux-Residual          L2-NORM 
          0                 1           2            10   10     1       0.4556206933E-02       2    1    1         0.2120329920E+00      0.1165284346E+01
          0                 2           2            10   10     1       0.2047426449E-02      10   10    1         0.5318004109E-01      0.3089109384E+00
          0                 3           2            10   10     1       0.9200525611E-03      10   10    1         0.2389755466E-01      0.1182118578E+00
          0                 4           2            10   10     1       0.4134437474E-03      10   10    1         0.1073884826E-01      0.5147324743E-01
          0                 5           2            10   10     1       0.1857888633E-03      10   10    1         0.4825712027E-02      0.2295646278E-01
          0                 6           1            10   10     1       0.8348767878E-04      10   10    1         0.2168525610E-02      0.1027699199E-01
          0                 7           1            10   10     1       0.3751669352E-04      10   10    1         0.9744670718E-03      0.4603568036E-02
          0                 8           1            10   10     1       0.1685878165E-04      10   10    1         0.4378942475E-03      0.2062444507E-02
          0                 9           1            10   10     1       0.7575778465E-05      10   10    1         0.1967753832E-03      0.9240527583E-03

    ------------------------------------------------
       NWT REQUIRED            9 OUTER ITERATIONS 
       AND A TOTAL OF         14 INNER ITERATIONS.
    ------------------------------------------------

 NO OUTPUT CONTROL FOR STRESS PERIOD   14   TIME STEP   26
 
 SOLVING FOR HEAD 
                                                   Max.-Head-Change                         Max.-Flux-Residual
  Residual-Control   Outer-Iter.   Inner-Iter.     Column Row Layer    Maximum-Head-Change  Column Row Layer    Maximum-Flux-Residual          L2-NORM 
          0                 1           2            10   10     1       0.4553208645E-02       9    5    1         0.2118100144E+00      0.1164387843E+01
          0                 2           2            10   10     1       0.2046076727E-02      10   10    1         0.5314503381E-01      0.3086336976E+00
          0                 3           2            10   10     1       0.9194449693E-03      10   10    1         0.2388179565E-01      0.1180881745E+00
          0                 4           2            10   10     1       0.4131702360E-03      10   10    1         0.1073175419E-01      0.5141746154E-01
          0                 5           2            10   10     1       0.1856657412E-03      10   10    1         0.4822518586E-02      0.2293143085E-01
          0                 6           1            10   10     1       0.8343225568E-04      10   10    1         0.2167088077E-02      0.1026577562E-01
          0                 7           1            10   10     1       0.3749174494E-04      10   10    1         0.9738199641E-03      0.4598544535E-02
          0                 8           1            10   10     1       0.1684755116E-04      10   10    1         0.4376029531E-03      0.2060194941E-02
          0                 9           1            10   10     1       0.7570723220E-05      10   10    1         0.1966442578E-03      0.9230477662E-03

    ------------------------------------------------
       NWT REQUIRED            9 OUTER ITERATIONS 
       AND A TOTAL OF         14 INNER ITERATIONS.
    ------------------------------------------------

 NO OUTPUT CONTROL FOR STRESS PERIOD   14   TIME STEP   27
 
 SOLVING FOR HEAD 
                                                   Max.-Head-Change                         Max.-Flux-Residual
  Residual-Control   Outer-Iter.   Inner-Iter.     Column Row Layer    Maximum-Head-Change  Column Row Layer    Maximum-Flux-Residual          L2-NORM 
          0                 1           2            10   10     1       0.4550318245E-02       9    5    1         0.2117612469E+00      0.1163641597E+01
          0                 2           2            10   10     1       0.2044775350E-02      10   10    1         0.5311128514E-01      0.3083929764E+00
          0                 3           2            10   10     1       0.9188590420E-03      10   10    1         0.2386660064E-01      0.1179760436E+00
          0                 4           2            10   10     1       0.4129064328E-03      10   10    1         0.1072491285E-01      0.5136616809E-01
          0                 5           2            10   10     1       0.1855469702E-03      10   10    1         0.4819438410E-02      0.2290826229E-01
          0                 6           1            10   10     1       0.8337878219E-04      10   10    1         0.2165701299E-02      0.1025534575E-01
          0                 7           1            10   10     1       0.3746767025E-04      10   10    1         0.9731956083E-03      0.4593854806E-02
          0                 8           1            10   10     1       0.1683671235E-04      10   10    1         0.4373218599E-03      0.2058088068E-02
          0                 9           1            10   10     1       0.7565843554E-05      10   10    1         0.1965177099E-03      0.9220990027E-03

    ------------------------------------------------
       NWT REQUIRED            9 OUTER ITERATIONS 
       AND A TOTAL OF         14 INNER ITERATIONS.
    ------------------------------------------------

 NO OUTPUT CONTROL FOR STRESS PERIOD   14   TIME STEP   28
 
 SOLVING FOR HEAD 
                                                   Max.-Head-Change                         Max.-Flux-Residual
  Residual-Control   Outer-Iter.   Inner-Iter.     Column Row Layer    Maximum-Head-Change  Column Row Layer    Maximum-Flux-Residual          L2-NORM 
          0                 1           2            10   10     1       0.4547426244E-02       9    5    1         0.2117184365E+00      0.1163141041E+01
          0                 2           2            10   10     1       0.2043473381E-02      10   10    1         0.5307751840E-01      0.3081652584E+00
          0                 3           2            10   10     1       0.9182729065E-03      10   10    1         0.2385139901E-01      0.1178623546E+00
          0                 4           2            10   10     1       0.4126425617E-03      10   10    1         0.1071806921E-01      0.5131404899E-01
          0                 5           2            10   10     1       0.1854281797E-03      10   10    1         0.4816357491E-02      0.2288481593E-01
          0                 6           1            10   10     1       0.8332530519E-04      10   10    1         0.2164314324E-02      0.1024482983E-01
          0                 7           1            10   10     1       0.3744359606E-04      10   10    1         0.9725712223E-03      0.4589140464E-02
          0                 8           1            10   10     1       0.1682587504E-04      10   10    1         0.4370407799E-03      0.2055974361E-02
          0                 9           1            10   10     1       0.7560965138E-05      10   10    1         0.1963911768E-03      0.9211514948E-03

    ------------------------------------------------
       NWT REQUIRED            9 OUTER ITERATIONS 
       AND A TOTAL OF         14 INNER ITERATIONS.
    ------------------------------------------------

 NO OUTPUT CONTROL FOR STRESS PERIOD   14   TIME STEP   29
 
 SOLVING FOR HEAD 
                                                   Max.-Head-Change                         Max.-Flux-Residual
  Residual-Control   Outer-Iter.   Inner-Iter.     Column Row Layer    Maximum-Head-Change  Column Row Layer    Maximum-Flux-Residual          L2-NORM 
          0                 1           2             6    8     1       0.6028581004E-02       6    8    1         0.3218821276E+00      0.1277935772E+01
          0                 2           2            10   10     1       0.2042121621E-02       6    8    1         0.5383593636E-01      0.3197152328E+00
          0                 3           2            10   10     1       0.9176643781E-03      10   10    1         0.2383561610E-01      0.1186415078E+00
          0                 4           2            10   10     1       0.4123686208E-03      10   10    1         0.1071096416E-01      0.5132465571E-01
          0                 5           2            10   10     1       0.1853048614E-03      10   10    1         0.4813159022E-02      0.2286621673E-01
          0                 6           1            10   10     1       0.8326979230E-04      10   10    1         0.2162874489E-02      0.1023479234E-01
          0                 7           1            10   10     1       0.3741860672E-04      10   10    1         0.9719230701E-03      0.4584466131E-02
          0                 8           1            10   10     1       0.1681462629E-04      10   10    1         0.4367490103E-03      0.2053840859E-02
          0                 9           1            10   10     1       0.7555901140E-05      10   10    1         0.1962598320E-03      0.9201808365E-03

    ------------------------------------------------
       NWT REQUIRED            9 OUTER ITERATIONS 
       AND A TOTAL OF         14 INNER ITERATIONS.
    ------------------------------------------------

 NO OUTPUT CONTROL FOR STRESS PERIOD   14   TIME STEP   30



 STREAM LISTING     PERIOD     14   STEP       30

 LAYER ROW COL. STREAM  RCH.  FLOW INTO     FLOW TO   FLOW OUT OF   OVRLND.     DIRECT     STREAM       STREAM     STREAM     STREAM   STREAMBED  STREAMBED
                SEG.NO.  NO.  STRM. RCH.    AQUIFER    STRM. RCH.    RUNOFF     PRECIP       ET          HEAD       DEPTH      WIDTH   CONDCTNC.   GRADIENT

   1    1    1     1     1    7.3575E+00  1.2279E-01   7.2347E+00  0.000E+00  0.000E+00  0.000E+00  1.09386E+03  8.110E-01  7.160E+00  3.222E-02  1.270E+00
   1    2    2     1     2    7.2347E+00  1.8849E-01   7.0463E+00  0.000E+00  0.000E+00  0.000E+00  1.08886E+03  8.053E-01  7.076E+00  4.953E-02  1.268E+00
   1    3    3     1     3    7.0463E+00  1.5918E-01   6.8871E+00  0.000E+00  0.000E+00  0.000E+00  1.08322E+03  7.991E-01  6.983E+00  4.190E-02  1.266E+00
   1    3    4     1     4    6.8871E+00  1.4547E-01   6.7416E+00  0.000E+00  0.000E+00  0.000E+00  1.07820E+03  7.949E-01  6.907E+00  3.833E-02  1.265E+00
   1    4    5     2     1    4.7416E+00  2.6814E-01   4.4735E+00  0.000E+00  0.000E+00  0.000E+00  1.07237E+03  4.377E-01  1.200E+01  7.800E-02  1.146E+00
   1    5    6     2     2    4.4735E+00  2.0545E-01   4.2680E+00  0.000E+00  0.000E+00  0.000E+00  1.06693E+03  4.241E-01  1.200E+01  6.000E-02  1.141E+00
   1    6    6     2     3    4.2680E+00  2.0472E-01   4.0633E+00  0.000E+00  0.000E+00  0.000E+00  1.06220E+03  4.121E-01  1.200E+01  6.000E-02  1.137E+00
   1    7    6     2     4    4.0633E+00  2.0399E-01   3.8593E+00  0.000E+00  0.000E+00  0.000E+00  1.05748E+03  3.998E-01  1.200E+01  6.000E-02  1.133E+00
   1    8    6     2     5    3.8593E+00  2.0324E-01   3.6561E+00  0.000E+00  0.000E+00  0.000E+00  1.05275E+03  3.873E-01  1.200E+01  6.000E-02  1.129E+00
   1    3    5     3     1    2.0000E+00  2.8252E-01   1.7175E+00  0.000E+00  0.000E+00  0.000E+00  1.07555E+03  1.909E+00  9.636E+00  7.227E-02  1.955E+00
   1    3    6     3     2    1.7175E+00  2.4905E-01   1.4684E+00  0.000E+00  0.000E+00  0.000E+00  1.07264E+03  1.727E+00  8.909E+00  6.682E-02  1.864E+00
   1    3    7     3     3    1.4684E+00  1.9718E-01   1.2712E+00  0.000E+00  0.000E+00  0.000E+00  1.06987E+03  1.555E+00  8.218E+00  5.547E-02  1.777E+00
   1    4    8     3     4    1.2712E+00  2.2567E-01   1.0456E+00  0.000E+00  0.000E+00  0.000E+00  1.06682E+03  1.364E+00  7.455E+00  6.709E-02  1.682E+00
   1    5    8     3     5    1.0456E+00  1.5790E-01   8.8768E-01  0.000E+00  0.000E+00  0.000E+00  1.06362E+03  1.164E+00  6.655E+00  4.991E-02  1.582E+00
   1    6    8     3     6    8.8768E-01  5.5980E-02   8.3170E-01  0.000E+00  0.000E+00  0.000E+00  1.06158E+03  1.036E+00  6.145E+00  1.844E-02  1.518E+00
   1    5   10     4     1    1.0000E+01  9.0919E-02   9.9091E+00  0.000E+00  0.000E+00  0.000E+00  1.07836E+03  6.368E-01  1.000E+01  2.500E-02  1.212E+00
   1    5    9     4     2    9.9091E+00  1.8158E-01   9.7275E+00  0.000E+00  0.000E+00  0.000E+00  1.07154E+03  6.315E-01  1.000E+01  5.000E-02  1.211E+00
   1    6    8     4     3    9.7275E+00  1.2689E-01   9.6006E+00  0.000E+00  0.000E+00  0.000E+00  1.06381E+03  6.256E-01  1.000E+01  3.500E-02  1.209E+00
   1    6    8     5     1    1.0432E+01  2.2686E-01   1.0205E+01  0.000E+00  0.000E+00  0.000E+00  1.05868E+03  6.790E-01  1.542E+01  6.166E-02  1.226E+00
   1    7    7     5     2    1.0205E+01  2.7894E-01   9.9265E+00  0.000E+00  0.000E+00  0.000E+00  1.05417E+03  6.732E-01  1.519E+01  7.594E-02  1.224E+00
   1    8    7     5     3    9.9265E+00  1.9221E-01   9.7343E+00  0.000E+00  0.000E+00  0.000E+00  1.04992E+03  6.676E-01  1.497E+01  5.241E-02  1.223E+00
   1    8    6     5     4    9.7343E+00  1.3577E-01   9.5985E+00  0.000E+00  0.000E+00  0.000E+00  1.04691E+03  6.637E-01  1.482E+01  3.706E-02  1.221E+00
   1    9    6     6     1    1.3255E+01  2.2980E-01   1.3025E+01  0.000E+00  0.000E+00  0.000E+00  1.04356E+03  8.301E-01  1.200E+01  6.000E-02  1.277E+00
   1   10    7     6     2    1.3025E+01  2.2928E-01   1.2796E+01  0.000E+00  0.000E+00  0.000E+00  1.03900E+03  8.214E-01  1.200E+01  6.000E-02  1.274E+00
   1   11    7     6     3    1.2796E+01  2.2875E-01   1.2567E+01  0.000E+00  0.000E+00  0.000E+00  1.03445E+03  8.126E-01  1.200E+01  6.000E-02  1.271E+00
   1   12    7     6     4    1.2567E+01  2.2823E-01   1.2339E+01  0.000E+00  0.000E+00  0.000E+00  1.02989E+03  8.038E-01  1.200E+01  6.000E-02  1.268E+00
   1   13    7     6     5    1.2339E+01 -1.7707E-01   1.2516E+01  0.000E+00  0.000E+00  0.000E+00  1.02671E+03  8.028E-01  1.200E+01  2.400E-01 -2.459E-01
   1   14    9     7     1    1.5000E+02  1.1574E+00   1.4884E+02  0.000E+00  0.000E+00  0.000E+00  1.03987E+03  2.288E+00  5.530E+01  5.593E-01  6.897E-01
   1   13    8     7     2    1.4884E+02  1.6066E+00   1.4724E+02  0.000E+00  0.000E+00  0.000E+00  1.03478E+03  2.281E+00  5.526E+01  6.149E-01  8.710E-01
   1   13    7     7     3    1.4724E+02  1.2529E+00   1.4598E+02  0.000E+00  0.000E+00  0.000E+00  1.02969E+03  2.273E+00  5.523E+01  5.586E-01  7.476E-01
   1   13    6     8     1    1.5850E+02  6.5063E-01   1.5785E+02  0.000E+00  0.000E+00  0.000E+00  1.02475E+03  2.873E+00  4.166E+01  4.246E-01  5.108E-01
   1   13    5     8     2    1.5785E+02 -2.9299E-01   1.5814E+02  0.000E+00  0.000E+00  0.000E+00  1.01850E+03  2.872E+00  4.165E+01  4.244E+00 -2.301E-02
   1   13    4     8     3    1.5814E+02 -3.3110E+00   1.6145E+02  0.000E+00  0.000E+00  0.000E+00  1.01226E+03  2.884E+00  4.182E+01  4.262E+00 -2.589E-01
   1   13    3     8     4    1.6145E+02 -4.2148E+00   1.6567E+02  0.000E+00  0.000E+00  0.000E+00  1.00603E+03  2.910E+00  4.219E+01  4.299E+00 -3.268E-01
   1   13    2     8     5    1.6567E+02 -2.7746E+00   1.6844E+02  0.000E+00  0.000E+00  0.000E+00  9.99808E+02  2.933E+00  4.253E+01  4.334E+00 -2.134E-01
   1   13    1     8     6    1.6844E+02 -2.0482E+00   1.7049E+02  0.000E+00  0.000E+00  0.000E+00  9.94824E+02  2.949E+00  4.276E+01  2.614E+00 -2.612E-01
   1    6    8     9     1    0.0000E+00  0.0000E+00   0.0000E+00  0.000E+00  0.000E+00  0.000E+00  1.07850E+03  0.000E+00  4.000E+00  0.000E+00  1.000E+00





UNSATURATED ZONE PACKAGE VOLUMETRIC BUDGET FOR  TIME STEP    30 STRESS PERIOD   14
  ------------------------------------------------------------------------------



     CUMULATIVE VOLUMES      L**3       RATES FOR THIS TIME STEP      L**3/T
     ------------------                 ------------------------

           IN:                                      IN:
           ---                                      ---
        INFILTRATION =    26615969.2213          INFILTRATION =       0.0000E+00

          OUT:                                     OUT:
          ----                                     ----
              UZF ET =   553806878.0037                UZF ET =       0.0000E+00
        UZF RECHARGE =   826243593.8712          UZF RECHARGE =          21.1949

            IN - OUT = -1353434502.6537              IN - OUT =         -21.1949

          STORAGE:                                 STORAGE:
          --------                                 --------
      STORAGE CHANGE = -1353409033.4036        STORAGE CHANGE =         -21.1949

 PERCENT DISCREPANCY IS DIFFERENCE BETWEEN IN-OUT MINUS CHANGE IN STORAGE
 DIVIDED BY THE AVERAGE OF IN AND OUT TIMES 100

 PERCENT DISCREPANCY =          -0.00     PERCENT DISCREPANCY =           0.00






1
  VOLUMETRIC BUDGET FOR ENTIRE MODEL AT END OF TIME STEP   30, STRESS PERIOD  14
  ------------------------------------------------------------------------------

     CUMULATIVE VOLUMES      L**3       RATES FOR THIS TIME STEP      L**3/T
     ------------------                 ------------------------

           IN:                                      IN:
           ---                                      ---
             STORAGE     =    31816694.0000               STORAGE     =       2.2852E-02
       CONSTANT HEAD     =           0.0000         CONSTANT HEAD     =           0.0000
               WELLS     =           0.0000                 WELLS     =           0.0000
     HEAD DEP BOUNDS     =     9445012.0000       HEAD DEP BOUNDS     =           0.2736
      STREAM LEAKAGE     =   381010048.0000        STREAM LEAKAGE     =           9.6865
        UZF RECHARGE     =   826244096.0000          UZF RECHARGE     =          21.1949
               GW ET     =           0.0000                 GW ET     =           0.0000
     SURFACE LEAKAGE     =           0.0000       SURFACE LEAKAGE     =           0.0000
    SUPPLEMENTARY WELLS  =           0.0000      SUPPLEMENTARY WELLS  =           0.0000

                TOTAL IN =  1248515840.0000                  TOTAL IN =          31.1778

          OUT:                                     OUT:
          ----                                     ----
             STORAGE     =   790054272.0000               STORAGE     =          18.0497
       CONSTANT HEAD     =           0.0000         CONSTANT HEAD     =           0.0000
               WELLS     =           0.0000                 WELLS     =           0.0000
     HEAD DEP BOUNDS     =     9857557.0000       HEAD DEP BOUNDS     =           0.2891
      STREAM LEAKAGE     =   364611264.0000        STREAM LEAKAGE     =          12.8187
        UZF RECHARGE     =           0.0000          UZF RECHARGE     =           0.0000
               GW ET     =    83825080.0000                 GW ET     =       1.7500E-02
     SURFACE LEAKAGE     =           0.0000       SURFACE LEAKAGE     =           0.0000
    SUPPLEMENTARY WELLS  =       36404.7930      SUPPLEMENTARY WELLS  =           0.0000

               TOTAL OUT =  1248384384.0000                 TOTAL OUT =          31.1749

                IN - OUT =      131456.0000                  IN - OUT =       2.8534E-03

     PERCENT DISCREPANCY =           0.01         PERCENT DISCREPANCY =           0.01






         TIME SUMMARY AT END OF TIME STEP   30 IN STRESS PERIOD   14
                    SECONDS     MINUTES      HOURS       DAYS        YEARS
                    -----------------------------------------------------------
   TIME STEP LENGTH  87600.      1460.0      24.333      1.0139     2.77588E-03
 STRESS PERIOD TIME 2.62800E+06  43800.      730.00      30.417     8.32763E-02
         TOTAL TIME 3.42504E+07 5.70840E+05  9514.0      396.42      1.0853    
1
1
                            STRESS PERIOD NO.   15, LENGTH =   2628000.    
                            -----------------------------------------------

                              NUMBER OF TIME STEPS =    30

                               MULTIPLIER FOR DELT =     1.000

                            INITIAL TIME STEP SIZE =   87600.00    

 WELL NO.  LAYER   ROW   COL   STRESS RATE         
 --------------------------------------------------
      1      1      6      4       0.000    
      2      1      6      7       0.000    
      3      1      7      4       0.000    
      4      1      7      5       0.000    
      5      1      8      4       0.000    
      6      1      8      5       0.000    
      7      1      9      4       0.000    
      8      1      9      5       0.000    
      9      1     10      4       0.000    
     10      1     10      5       0.000    

     10 WELLS

 REUSING NON-PARAMETER GHB CELLS FROM LAST STRESS PERIOD

      2 GHB CELLS

 REUSING STREAM SEGMENT DATA FROM LAST STRESS PERIOD



            AREAL INFILTRATION RATE
 READING ON UNIT   19 WITH FORMAT: (10F4.0)            

            1           2           3           4           5           6           7           8           9          10
 ........................................................................................................................
   1    0.000       0.000       0.000       0.000       0.000       0.000       0.000       0.000       0.000       0.000    
   2    0.000       0.000       0.000       0.000       0.000       0.000       0.000       0.000       0.000       0.000    
   3    0.000       0.000       0.000       0.000       0.000       0.000       0.000       0.000       0.000       0.000    
   4    0.000       0.000       0.000       0.000       0.000       0.000       0.000       0.000       0.000       0.000    
   5    0.000       0.000       0.000       0.000       0.000       0.000       0.000       0.000       0.000       0.000    
   6    0.000       0.000       0.000       0.000       0.000       0.000       0.000       0.000       0.000       0.000    
   7    0.000       0.000       0.000       0.000       0.000       0.000       0.000       0.000       0.000       0.000    
   8    0.000       0.000       0.000       0.000       0.000       0.000       0.000       0.000       0.000       0.000    
   9    0.000       0.000       0.000       0.000       0.000       0.000       0.000       0.000       0.000       0.000    
  10    0.000       0.000       0.000       0.000       0.000       0.000       0.000       0.000       0.000       0.000    
  11    0.000       0.000       0.000       0.000       0.000       0.000       0.000       0.000       0.000       0.000    
  12    0.000       0.000       0.000       0.000       0.000       0.000       0.000       0.000       0.000       0.000    
  13    0.000       0.000       0.000       0.000       0.000       0.000       0.000       0.000       0.000       0.000    
  14    0.000       0.000       0.000       0.000       0.000       0.000       0.000       0.000       0.000       0.000    
  15    0.000       0.000       0.000       0.000       0.000       0.000       0.000       0.000       0.000       0.000    

                  ET RATE =  1.000000E-10

 USING ET EXTINCTION DEPTH FROM PREVIOUS STRESS PERIOD. CURRENT PERIOD IS:      15

 USING EXTINCTION WATER CONTENT FROM PREVIOUS STRESS PERIOD. CURRENT PERIOD IS:      15

 PROCESSING AGO STRESS PERIOD DATA

 READING AGO STRESS PERIOD DATA

 READING IRRIGATION STREAM

 READING IRRIGATION WELL

 READING SUPPLEMENTAL WEL

 END PROCESSING AGO STRESS PERIOD DATA OPTIONS
 
 SOLVING FOR HEAD 
                                                   Max.-Head-Change                         Max.-Flux-Residual
  Residual-Control   Outer-Iter.   Inner-Iter.     Column Row Layer    Maximum-Head-Change  Column Row Layer    Maximum-Flux-Residual          L2-NORM 
          0                 1           2             6    8     1       0.6010037748E-02       6    8    1         0.3205573443E+00      0.1337248261E+01
          0                 2           2            10   10     1       0.2040818351E-02       6    8    1         0.5370381812E-01      0.3246543600E+00
          0                 3           2            10   10     1       0.9170776306E-03      10   10    1         0.2382039913E-01      0.1189348677E+00
          0                 4           2            10   10     1       0.4121044633E-03      10   10    1         0.1070411332E-01      0.5132117463E-01
          0                 5           2            10   10     1       0.1851859376E-03      10   10    1         0.4810074738E-02      0.2285548174E-01
          0                 6           1            10   10     1       0.8321625353E-04      10   10    1         0.2161485946E-02      0.1022927832E-01
          0                 7           1            10   10     1       0.3739450427E-04      10   10    1         0.9712979546E-03      0.4581908261E-02
          0                 8           1            10   10     1       0.1680377547E-04      10   10    1         0.4364675884E-03      0.2052671789E-02
          0                 9           1            10   10     1       0.7551016471E-05      10   10    1         0.1961331432E-03      0.9196481987E-03

    ------------------------------------------------
       NWT REQUIRED            9 OUTER ITERATIONS 
       AND A TOTAL OF         14 INNER ITERATIONS.
    ------------------------------------------------

 NO OUTPUT CONTROL FOR STRESS PERIOD   15   TIME STEP    1
 
 SOLVING FOR HEAD 
                                                   Max.-Head-Change                         Max.-Flux-Residual
  Residual-Control   Outer-Iter.   Inner-Iter.     Column Row Layer    Maximum-Head-Change  Column Row Layer    Maximum-Flux-Residual          L2-NORM 
          0                 1           2             6    8     1       0.5819844529E-02       6    8    1         0.3100548022E+00      0.1329836808E+01
          0                 2           2            10   10     1       0.2039465382E-02      10   10    1         0.5297356841E-01      0.3241142011E+00
          0                 3           2            10   10     1       0.9164685811E-03      10   10    1         0.2380460223E-01      0.1188510666E+00
          0                 4           2            10   10     1       0.4118302981E-03      10   10    1         0.1069700223E-01      0.5129013149E-01
          0                 5           2            10   10     1       0.1850625226E-03      10   10    1         0.4806873669E-02      0.2284169594E-01
          0                 6           1            10   10     1       0.8316069911E-04      10   10    1         0.2160044996E-02      0.1022302769E-01
          0                 7           1            10   10     1       0.3736949716E-04      10   10    1         0.9706493217E-03      0.4579069567E-02
          0                 8           1            10   10     1       0.1679251898E-04      10   10    1         0.4361756133E-03      0.2051383580E-02
          0                 9           1            10   10     1       0.7545949721E-05      10   10    1         0.1960017134E-03      0.9190634980E-03

    ------------------------------------------------
       NWT REQUIRED            9 OUTER ITERATIONS 
       AND A TOTAL OF         14 INNER ITERATIONS.
    ------------------------------------------------

 NO OUTPUT CONTROL FOR STRESS PERIOD   15   TIME STEP    2
 
 SOLVING FOR HEAD 
                                                   Max.-Head-Change                         Max.-Flux-Residual
  Residual-Control   Outer-Iter.   Inner-Iter.     Column Row Layer    Maximum-Head-Change  Column Row Layer    Maximum-Flux-Residual          L2-NORM 
          0                 1           2             6    8     1       0.5644241447E-02       6    8    1         0.3003636171E+00      0.1323494664E+01
          0                 2           2            10   10     1       0.2038160995E-02      10   10    1         0.5293973917E-01      0.3236257265E+00
          0                 3           2            10   10     1       0.9158813524E-03      10   10    1         0.2378937233E-01      0.1187660056E+00
          0                 4           2            10   10     1       0.4115659337E-03      10   10    1         0.1069014582E-01      0.5125786618E-01
          0                 5           2            10   10     1       0.1849435100E-03      10   10    1         0.4803786991E-02      0.2282742155E-01
          0                 6           1            10   10     1       0.8310712208E-04      10   10    1         0.2158655426E-02      0.1021658302E-01
          0                 7           1            10   10     1       0.3734537846E-04      10   10    1         0.9700237723E-03      0.4576150800E-02
          0                 8           1            10   10     1       0.1678166141E-04      10   10    1         0.4358940095E-03      0.2050060376E-02
          0                 9           1            10   10     1       0.7541062051E-05      10   10    1         0.1958749493E-03      0.9184642886E-03

    ------------------------------------------------
       NWT REQUIRED            9 OUTER ITERATIONS 
       AND A TOTAL OF         14 INNER ITERATIONS.
    ------------------------------------------------

 NO OUTPUT CONTROL FOR STRESS PERIOD   15   TIME STEP    3
 
 SOLVING FOR HEAD 
                                                   Max.-Head-Change                         Max.-Flux-Residual
  Residual-Control   Outer-Iter.   Inner-Iter.     Column Row Layer    Maximum-Head-Change  Column Row Layer    Maximum-Flux-Residual          L2-NORM 
          0                 1           2             6    8     1       0.5481412970E-02       6    8    1         0.2913832791E+00      0.1317698921E+01
          0                 2           2            10   10     1       0.2036806977E-02      10   10    1         0.5290461932E-01      0.3231637614E+00
          0                 3           2            10   10     1       0.9152718526E-03      10   10    1         0.2377356328E-01      0.1186846531E+00
          0                 4           2            10   10     1       0.4112915756E-03      10   10    1         0.1068302952E-01      0.5122672805E-01
          0                 5           2            10   10     1       0.1848200129E-03      10   10    1         0.4800583693E-02      0.2281352060E-01
          0                 6           1            10   10     1       0.8305153265E-04      10   10    1         0.2157213520E-02      0.1021026283E-01
          0                 7           1            10   10     1       0.3732035635E-04      10   10    1         0.9693747314E-03      0.4573273785E-02
          0                 8           1            10   10     1       0.1677039841E-04      10   10    1         0.4356018612E-03      0.2048752090E-02
          0                 9           1            10   10     1       0.7535992551E-05      10   10    1         0.1957434485E-03      0.9178698886E-03

    ------------------------------------------------
       NWT REQUIRED            9 OUTER ITERATIONS 
       AND A TOTAL OF         14 INNER ITERATIONS.
    ------------------------------------------------

 NO OUTPUT CONTROL FOR STRESS PERIOD   15   TIME STEP    4
 
 SOLVING FOR HEAD 
                                                   Max.-Head-Change                         Max.-Flux-Residual
  Residual-Control   Outer-Iter.   Inner-Iter.     Column Row Layer    Maximum-Head-Change  Column Row Layer    Maximum-Flux-Residual          L2-NORM 
          0                 1           2             6    8     1       0.5330780677E-02       6    8    1         0.2830809444E+00      0.1312861230E+01
          0                 2           2            10   10     1       0.2035501628E-02      10   10    1         0.5287076412E-01      0.3227675229E+00
          0                 3           2            10   10     1       0.9146842129E-03      10   10    1         0.2375832225E-01      0.1186054976E+00
          0                 4           2            10   10     1       0.4110270362E-03      10   10    1         0.1067616836E-01      0.5119504617E-01
          0                 5           2            10   10     1       0.1847009255E-03      10   10    1         0.4797494986E-02      0.2279933183E-01
          0                 6           1            10   10     1       0.8299792384E-04      10   10    1         0.2155823089E-02      0.1020383205E-01
          0                 7           1            10   10     1       0.3729622413E-04      10   10    1         0.9687488161E-03      0.4570356955E-02
          0                 8           1            10   10     1       0.1675953533E-04      10   10    1         0.4353201041E-03      0.2047429471E-02
          0                 9           1            10   10     1       0.7531102630E-05      10   10    1         0.1956166146E-03      0.9172705276E-03

    ------------------------------------------------
       NWT REQUIRED            9 OUTER ITERATIONS 
       AND A TOTAL OF         14 INNER ITERATIONS.
    ------------------------------------------------

 NO OUTPUT CONTROL FOR STRESS PERIOD   15   TIME STEP    5
 
 SOLVING FOR HEAD 
                                                   Max.-Head-Change                         Max.-Flux-Residual
  Residual-Control   Outer-Iter.   Inner-Iter.     Column Row Layer    Maximum-Head-Change  Column Row Layer    Maximum-Flux-Residual          L2-NORM 
          0                 1           2             6    8     1       0.5191306067E-02       6    8    1         0.2753980411E+00      0.1308605521E+01
          0                 2           2            10   10     1       0.2034146716E-02      10   10    1         0.5283562007E-01      0.3224031500E+00
          0                 3           2            10   10     1       0.9140743314E-03      10   10    1         0.2374250286E-01      0.1185271126E+00
          0                 4           2            10   10     1       0.4107525156E-03      10   10    1         0.1066904765E-01      0.5116310749E-01
          0                 5           2            10   10     1       0.1845773592E-03      10   10    1         0.4794289810E-02      0.2278500083E-01
          0                 6           1            10   10     1       0.8294230565E-04      10   10    1         0.2154380388E-02      0.1019733677E-01
          0                 7           1            10   10     1       0.3727118952E-04      10   10    1         0.9680994320E-03      0.4567411510E-02
          0                 8           1            10   10     1       0.1674826708E-04      10   10    1         0.4350278099E-03      0.2046095010E-02
          0                 9           1            10   10     1       0.7526030628E-05      10   10    1         0.1954850514E-03      0.9166671322E-03

    ------------------------------------------------
       NWT REQUIRED            9 OUTER ITERATIONS 
       AND A TOTAL OF         14 INNER ITERATIONS.
    ------------------------------------------------

 NO OUTPUT CONTROL FOR STRESS PERIOD   15   TIME STEP    6
 
 SOLVING FOR HEAD 
                                                   Max.-Head-Change                         Max.-Flux-Residual
  Residual-Control   Outer-Iter.   Inner-Iter.     Column Row Layer    Maximum-Head-Change  Column Row Layer    Maximum-Flux-Residual          L2-NORM 
          0                 1           2             6    8     1       0.5061775658E-02       6    8    1         0.2682669623E+00      0.1304779572E+01
          0                 2           2            10   10     1       0.2032791309E-02      10   10    1         0.5280046498E-01      0.3220576387E+00
          0                 3           2            10   10     1       0.9134641900E-03      10   10    1         0.2372667752E-01      0.1184490914E+00
          0                 4           2            10   10     1       0.4104778614E-03      10   10    1         0.1066192383E-01      0.5113110853E-01
          0                 5           2            10   10     1       0.1844537255E-03      10   10    1         0.4791083038E-02      0.2277068538E-01
          0                 6           1            10   10     1       0.8288665319E-04      10   10    1         0.2152936884E-02      0.1019096725E-01
          0                 7           1            10   10     1       0.3724613865E-04      10   10    1         0.9674496605E-03      0.4564464870E-02
          0                 8           1            10   10     1       0.1673699107E-04      10   10    1         0.4347353279E-03      0.2044757891E-02
          0                 9           1            10   10     1       0.7520955124E-05      10   10    1         0.1953533994E-03      0.9160601352E-03

    ------------------------------------------------
       NWT REQUIRED            9 OUTER ITERATIONS 
       AND A TOTAL OF         14 INNER ITERATIONS.
    ------------------------------------------------

 NO OUTPUT CONTROL FOR STRESS PERIOD   15   TIME STEP    7
 
 SOLVING FOR HEAD 
                                                   Max.-Head-Change                         Max.-Flux-Residual
  Residual-Control   Outer-Iter.   Inner-Iter.     Column Row Layer    Maximum-Head-Change  Column Row Layer    Maximum-Flux-Residual          L2-NORM 
          0                 1           2             6    8     1       0.4941615536E-02       6    8    1         0.2616559415E+00      0.1300762900E+01
          0                 2           2            10   10     1       0.2031435666E-02      10   10    1         0.5276530098E-01      0.3216408706E+00
          0                 3           2            10   10     1       0.9128540014E-03      10   10    1         0.2371084970E-01      0.1183603607E+00
          0                 4           2            10   10     1       0.4102032119E-03      10   10    1         0.1065479958E-01      0.5109705332E-01
          0                 5           2            10   10     1       0.1843301057E-03      10   10    1         0.4787876383E-02      0.2275561011E-01
          0                 6           1            10   10     1       0.8283101224E-04      10   10    1         0.2151493569E-02      0.1018404848E-01
          0                 7           1            10   10     1       0.3722109528E-04      10   10    1         0.9668000348E-03      0.4561392552E-02
          0                 8           1            10   10     1       0.1672571957E-04      10   10    1         0.4344429387E-03      0.2043368668E-02
          0                 9           1            10   10     1       0.7515881872E-05      10   10    1         0.1952217955E-03      0.9154317087E-03

    ------------------------------------------------
       NWT REQUIRED            9 OUTER ITERATIONS 
       AND A TOTAL OF         14 INNER ITERATIONS.
    ------------------------------------------------

 NO OUTPUT CONTROL FOR STRESS PERIOD   15   TIME STEP    8
 
 SOLVING FOR HEAD 
                                                   Max.-Head-Change                         Max.-Flux-Residual
  Residual-Control   Outer-Iter.   Inner-Iter.     Column Row Layer    Maximum-Head-Change  Column Row Layer    Maximum-Flux-Residual          L2-NORM 
          0                 1           2             6    8     1       0.4830042465E-02       6    8    1         0.2555208270E+00      0.1297339795E+01
          0                 2           2            10   10     1       0.2030128860E-02      10   10    1         0.5273140607E-01      0.3211963346E+00
          0                 3           2            10   10     1       0.9122657439E-03      10   10    1         0.2369559185E-01      0.1182199431E+00
          0                 4           2            10   10     1       0.4099384101E-03      10   10    1         0.1064793128E-01      0.5103545196E-01
          0                 5           2            10   10     1       0.1842109067E-03      10   10    1         0.4784784651E-02      0.2272755031E-01
          0                 6           1            10   10     1       0.8277735567E-04      10   10    1         0.2150101846E-02      0.1017124145E-01
          0                 7           1            10   10     1       0.3719694255E-04      10   10    1         0.9661735623E-03      0.4555557112E-02
          0                 8           1            10   10     1       0.1671484724E-04      10   10    1         0.4341609347E-03      0.2040714841E-02
          0                 9           1            10   10     1       0.7510987699E-05      10   10    1         0.1950948526E-03      0.9142280277E-03

    ------------------------------------------------
       NWT REQUIRED            9 OUTER ITERATIONS 
       AND A TOTAL OF         14 INNER ITERATIONS.
    ------------------------------------------------

 NO OUTPUT CONTROL FOR STRESS PERIOD   15   TIME STEP    9
 
 SOLVING FOR HEAD 
                                                   Max.-Head-Change                         Max.-Flux-Residual
  Residual-Control   Outer-Iter.   Inner-Iter.     Column Row Layer    Maximum-Head-Change  Column Row Layer    Maximum-Flux-Residual          L2-NORM 
          0                 1           2             6    8     1       0.4726055028E-02       6    8    1         0.2498071409E+00      0.1294272645E+01
          0                 2           2            10   10     1       0.2028772399E-02      10   10    1         0.5269622249E-01      0.3207877041E+00
          0                 3           2            10   10     1       0.9116551496E-03      10   10    1         0.2367975432E-01      0.1180910321E+00
          0                 4           2            10   10     1       0.4096635596E-03      10   10    1         0.1064080221E-01      0.5098044710E-01
          0                 5           2            10   10     1       0.1840871871E-03      10   10    1         0.4781575600E-02      0.2270324049E-01
          0                 6           1            10   10     1       0.8272166519E-04      10   10    1         0.2148657338E-02      0.1016045561E-01
          0                 7           1            10   10     1       0.3717187417E-04      10   10    1         0.9655233381E-03      0.4550766531E-02
          0                 8           1            10   10     1       0.1670356298E-04      10   10    1         0.4338682447E-03      0.2038586302E-02
          0                 9           1            10   10     1       0.7505908444E-05      10   10    1         0.1949631046E-03      0.9132803678E-03

    ------------------------------------------------
       NWT REQUIRED            9 OUTER ITERATIONS 
       AND A TOTAL OF         14 INNER ITERATIONS.
    ------------------------------------------------

 NO OUTPUT CONTROL FOR STRESS PERIOD   15   TIME STEP   10
 
 SOLVING FOR HEAD 
                                                   Max.-Head-Change                         Max.-Flux-Residual
  Residual-Control   Outer-Iter.   Inner-Iter.     Column Row Layer    Maximum-Head-Change  Column Row Layer    Maximum-Flux-Residual          L2-NORM 
          0                 1           2             6    8     1       0.4629558064E-02       6    8    1         0.2445083255E+00      0.1291911158E+01
          0                 2           2            10   10     1       0.2027415573E-02      10   10    1         0.5266102914E-01      0.3205231180E+00
          0                 3           2            10   10     1       0.9110443977E-03      10   10    1         0.2366391255E-01      0.1180132178E+00
          0                 4           2            10   10     1       0.4093886423E-03      10   10    1         0.1063367133E-01      0.5094680474E-01
          0                 5           2            10   10     1       0.1839634394E-03      10   10    1         0.4778365780E-02      0.2268806807E-01
          0                 6           1            10   10     1       0.8266596371E-04      10   10    1         0.2147212518E-02      0.1015358421E-01
          0                 7           1            10   10     1       0.3714680179E-04      10   10    1         0.9648729925E-03      0.4547656029E-02
          0                 8           1            10   10     1       0.1669227747E-04      10   10    1         0.4335755136E-03      0.2037967666E-02
          0                 9           1            10   10     1       0.7500828689E-05      10   10    1         0.1948313436E-03      0.9145124784E-03

    ------------------------------------------------
       NWT REQUIRED            9 OUTER ITERATIONS 
       AND A TOTAL OF         14 INNER ITERATIONS.
    ------------------------------------------------

 NO OUTPUT CONTROL FOR STRESS PERIOD   15   TIME STEP   11
 
 SOLVING FOR HEAD 
                                                   Max.-Head-Change                         Max.-Flux-Residual
  Residual-Control   Outer-Iter.   Inner-Iter.     Column Row Layer    Maximum-Head-Change  Column Row Layer    Maximum-Flux-Residual          L2-NORM 
          0                 1           2             6    8     1       0.4539674011E-02       6    8    1         0.2395755417E+00      0.1289795009E+01
          0                 2           2            10   10     1       0.2026058606E-02      10   10    1         0.5262582953E-01      0.3202727417E+00
          0                 3           2            10   10     1       0.9104336370E-03      10   10    1         0.2364806939E-01      0.1179359627E+00
          0                 4           2            10   10     1       0.4091137452E-03      10   10    1         0.1062654045E-01      0.5091316003E-01
          0                 5           2            10   10     1       0.1838397122E-03      10   10    1         0.4775156255E-02      0.2267287621E-01
          0                 6           1            10   10     1       0.8261027599E-04      10   10    1         0.2145767955E-02      0.1014670385E-01
          0                 7           1            10   10     1       0.3712173791E-04      10   10    1         0.9642228197E-03      0.4544540028E-02
          0                 8           1            10   10     1       0.1668099671E-04      10   10    1         0.4332828834E-03      0.2035837185E-02
          0                 9           1            10   10     1       0.7495751685E-05      10   10    1         0.1946996402E-03      0.9122601746E-03

    ------------------------------------------------
       NWT REQUIRED            9 OUTER ITERATIONS 
       AND A TOTAL OF         14 INNER ITERATIONS.
    ------------------------------------------------

 NO OUTPUT CONTROL FOR STRESS PERIOD   15   TIME STEP   12
 
 SOLVING FOR HEAD 
                                                   Max.-Head-Change                         Max.-Flux-Residual
  Residual-Control   Outer-Iter.   Inner-Iter.     Column Row Layer    Maximum-Head-Change  Column Row Layer    Maximum-Flux-Residual          L2-NORM 
          0                 1           2            10   10     1       0.4505724674E-02       6    8    1         0.2349789502E+00      0.1286873152E+01
          0                 2           2            10   10     1       0.2024701296E-02      10   10    1         0.5259062311E-01      0.3198162765E+00
          0                 3           2            10   10     1       0.9098226785E-03      10   10    1         0.2363222203E-01      0.1177949063E+00
          0                 4           2            10   10     1       0.4088387394E-03      10   10    1         0.1061940717E-01      0.5085305500E-01
          0                 5           2            10   10     1       0.1837159262E-03      10   10    1         0.4771945405E-02      0.2264573508E-01
          0                 6           1            10   10     1       0.8255455800E-04      10   10    1         0.2144322693E-02      0.1013434778E-01
          0                 7           1            10   10     1       0.3709665803E-04      10   10    1         0.9635722818E-03      0.4538912163E-02
          0                 8           1            10   10     1       0.1666970845E-04      10   10    1         0.4329900734E-03      0.2033206220E-02
          0                 9           1            10   10     1       0.7490670429E-05      10   10    1         0.1945678407E-03      0.9108406291E-03

    ------------------------------------------------
       NWT REQUIRED            9 OUTER ITERATIONS 
       AND A TOTAL OF         14 INNER ITERATIONS.
    ------------------------------------------------

 NO OUTPUT CONTROL FOR STRESS PERIOD   15   TIME STEP   13
 
 SOLVING FOR HEAD 
                                                   Max.-Head-Change                         Max.-Flux-Residual
  Residual-Control   Outer-Iter.   Inner-Iter.     Column Row Layer    Maximum-Head-Change  Column Row Layer    Maximum-Flux-Residual          L2-NORM 
          0                 1           2            10   10     1       0.4502708585E-02       2    2    1         0.2324142369E+00      0.1284705911E+01
          0                 2           2            10   10     1       0.2023343684E-02      10   10    1         0.5255540858E-01      0.3194742512E+00
          0                 3           2            10   10     1       0.9092115892E-03      10   10    1         0.2361637116E-01      0.1176745922E+00
          0                 4           2            10   10     1       0.4085636768E-03      10   10    1         0.1061227237E-01      0.5080077958E-01
          0                 5           2            10   10     1       0.1835921165E-03      10   10    1         0.4768733908E-02      0.2262260448E-01
          0                 6           1            10   10     1       0.8249882976E-04      10   10    1         0.2142877151E-02      0.1012408971E-01
          0                 7           1            10   10     1       0.3707157439E-04      10   10    1         0.9629216273E-03      0.4534358175E-02
          0                 8           1            10   10     1       0.1665841794E-04      10   10    1         0.4326972062E-03      0.2031182976E-02
          0                 9           1            10   10     1       0.7485588672E-05      10   10    1         0.1944360198E-03      0.9099411642E-03

    ------------------------------------------------
       NWT REQUIRED            9 OUTER ITERATIONS 
       AND A TOTAL OF         14 INNER ITERATIONS.
    ------------------------------------------------

 NO OUTPUT CONTROL FOR STRESS PERIOD   15   TIME STEP   14
 
 SOLVING FOR HEAD 
                                                   Max.-Head-Change                         Max.-Flux-Residual
  Residual-Control   Outer-Iter.   Inner-Iter.     Column Row Layer    Maximum-Head-Change  Column Row Layer    Maximum-Flux-Residual          L2-NORM 
          0                 1           2            10   10     1       0.4499691840E-02       2    2    1         0.2319017686E+00      0.1283046172E+01
          0                 2           2            10   10     1       0.2021985789E-02      10   10    1         0.5252018646E-01      0.3192339231E+00
          0                 3           2            10   10     1       0.9086003786E-03      10   10    1         0.2360051703E-01      0.1175935135E+00
          0                 4           2            10   10     1       0.4082885626E-03      10   10    1         0.1060513617E-01      0.5076562064E-01
          0                 5           2            10   10     1       0.1834682850E-03      10   10    1         0.4765521817E-02      0.2260679439E-01
          0                 6           1            10   10     1       0.8244309226E-04      10   10    1         0.2141431352E-02      0.1011694500E-01
          0                 7           1            10   10     1       0.3704648650E-04      10   10    1         0.9622708592E-03      0.4531218768E-02
          0                 8           1            10   10     1       0.1664712593E-04      10   10    1         0.4324042895E-03      0.2029958284E-02
          0                 9           1            10   10     1       0.7480506166E-05      10   10    1         0.1943041743E-03      0.9092837446E-03

    ------------------------------------------------
       NWT REQUIRED            9 OUTER ITERATIONS 
       AND A TOTAL OF         14 INNER ITERATIONS.
    ------------------------------------------------

 NO OUTPUT CONTROL FOR STRESS PERIOD   15   TIME STEP   15
 
 SOLVING FOR HEAD 
                                                   Max.-Head-Change                         Max.-Flux-Residual
  Residual-Control   Outer-Iter.   Inner-Iter.     Column Row Layer    Maximum-Head-Change  Column Row Layer    Maximum-Flux-Residual          L2-NORM 
          0                 1           2            10   10     1       0.4496674486E-02       2    2    1         0.2313970361E+00      0.1280511883E+01
          0                 2           2            10   10     1       0.2020627634E-02      10   10    1         0.5248495728E-01      0.3188916748E+00
          0                 3           2            10   10     1       0.9079890562E-03      10   10    1         0.2358465987E-01      0.1175055816E+00
          0                 4           2            10   10     1       0.4080134012E-03      10   10    1         0.1059799869E-01      0.5072961179E-01
          0                 5           2            10   10     1       0.1833444328E-03      10   10    1         0.4762309167E-02      0.2259065347E-01
          0                 6           1            10   10     1       0.8238734601E-04      10   10    1         0.2139985323E-02      0.1010963421E-01
          0                 7           1            10   10     1       0.3702139511E-04      10   10    1         0.9616199976E-03      0.4527817206E-02
          0                 8           1            10   10     1       0.1663583216E-04      10   10    1         0.4321113372E-03      0.2028225150E-02
          0                 9           1            10   10     1       0.7475422909E-05      10   10    1         0.1941723202E-03      0.9086043119E-03

    ------------------------------------------------
       NWT REQUIRED            9 OUTER ITERATIONS 
       AND A TOTAL OF         14 INNER ITERATIONS.
    ------------------------------------------------

 NO OUTPUT CONTROL FOR STRESS PERIOD   15   TIME STEP   16
 
 SOLVING FOR HEAD 
                                                   Max.-Head-Change                         Max.-Flux-Residual
  Residual-Control   Outer-Iter.   Inner-Iter.     Column Row Layer    Maximum-Head-Change  Column Row Layer    Maximum-Flux-Residual          L2-NORM 
          0                 1           2            10   10     1       0.4493656571E-02       2    2    1         0.2309044735E+00      0.1279033298E+01
          0                 2           2            10   10     1       0.2019269239E-02      10   10    1         0.5244972161E-01      0.3186702438E+00
          0                 3           2            10   10     1       0.9073776327E-03      10   10    1         0.2356879995E-01      0.1174268408E+00
          0                 4           2            10   10     1       0.4077381968E-03      10   10    1         0.1059086003E-01      0.5069466532E-01
          0                 5           2            10   10     1       0.1832205633E-03      10   10    1         0.4759096037E-02      0.2257485758E-01
          0                 6           1            10   10     1       0.8233159251E-04      10   10    1         0.2138539090E-02      0.1010248821E-01
          0                 7           1            10   10     1       0.3699630072E-04      10   10    1         0.9609690534E-03      0.4524585930E-02
          0                 8           1            10   10     1       0.1662453790E-04      10   10    1         0.4318183552E-03      0.2026764838E-02
          0                 9           1            10   10     1       0.7470339152E-05      10   10    1         0.1940404473E-03      0.9079446930E-03

    ------------------------------------------------
       NWT REQUIRED            9 OUTER ITERATIONS 
       AND A TOTAL OF         14 INNER ITERATIONS.
    ------------------------------------------------

 NO OUTPUT CONTROL FOR STRESS PERIOD   15   TIME STEP   17
 
 SOLVING FOR HEAD 
                                                   Max.-Head-Change                         Max.-Flux-Residual
  Residual-Control   Outer-Iter.   Inner-Iter.     Column Row Layer    Maximum-Head-Change  Column Row Layer    Maximum-Flux-Residual          L2-NORM 
          0                 1           2            10   10     1       0.4490528764E-02       2    2    1         0.2304237043E+00      0.1277774819E+01
          0                 2           2            10   10     1       0.2017861523E-02      10   10    1         0.5241320358E-01      0.3184615445E+00
          0                 3           2            10   10     1       0.9067440737E-03      10   10    1         0.2355236449E-01      0.1173499107E+00
          0                 4           2            10   10     1       0.4074530579E-03      10   10    1         0.1058346306E-01      0.5066027176E-01
          0                 5           2            10   10     1       0.1830922343E-03      10   10    1         0.4755766963E-02      0.2255930017E-01
          0                 6           1            10   10     1       0.8227383762E-04      10   10    1         0.2137040826E-02      0.1009544967E-01
          0                 7           1            10   10     1       0.3697030843E-04      10   10    1         0.9602947608E-03      0.4521402433E-02
          0                 8           1            10   10     1       0.1661283970E-04      10   10    1         0.4315148880E-03      0.2025325409E-02
          0                 9           1            10   10     1       0.7465074815E-05      10   10    1         0.1939038782E-03      0.9072944379E-03

    ------------------------------------------------
       NWT REQUIRED            9 OUTER ITERATIONS 
       AND A TOTAL OF         14 INNER ITERATIONS.
    ------------------------------------------------

 NO OUTPUT CONTROL FOR STRESS PERIOD   15   TIME STEP   18
 
 SOLVING FOR HEAD 
                                                   Max.-Head-Change                         Max.-Flux-Residual
  Residual-Control   Outer-Iter.   Inner-Iter.     Column Row Layer    Maximum-Head-Change  Column Row Layer    Maximum-Flux-Residual          L2-NORM 
          0                 1           2            10   10     1       0.4487510297E-02       2    2    1         0.2299545028E+00      0.1276470314E+01
          0                 2           2            10   10     1       0.2016502908E-02      10   10    1         0.5237796160E-01      0.3182477366E+00
          0                 3           2            10   10     1       0.9061325640E-03      10   10    1         0.2353650206E-01      0.1172716414E+00
          0                 4           2            10   10     1       0.4071778207E-03      10   10    1         0.1057632343E-01      0.5062550898E-01
          0                 5           2            10   10     1       0.1829683528E-03      10   10    1         0.4752553461E-02      0.2254359810E-01
          0                 6           1            10   10     1       0.8221808011E-04      10   10    1         0.2135594454E-02      0.1008834782E-01
          0                 7           1            10   10     1       0.3694521254E-04      10   10    1         0.9596437613E-03      0.4518191976E-02
          0                 8           1            10   10     1       0.1660154444E-04      10   10    1         0.4312218835E-03      0.2023876357E-02
          0                 9           1            10   10     1       0.7459991058E-05      10   10    1         0.1937720020E-03      0.9066408097E-03

    ------------------------------------------------
       NWT REQUIRED            9 OUTER ITERATIONS 
       AND A TOTAL OF         14 INNER ITERATIONS.
    ------------------------------------------------

 NO OUTPUT CONTROL FOR STRESS PERIOD   15   TIME STEP   19
 
 SOLVING FOR HEAD 
                                                   Max.-Head-Change                         Max.-Flux-Residual
  Residual-Control   Outer-Iter.   Inner-Iter.     Column Row Layer    Maximum-Head-Change  Column Row Layer    Maximum-Flux-Residual          L2-NORM 
          0                 1           2            10   10     1       0.4484491222E-02       2    2    1         0.2294966049E+00      0.1275242822E+01
          0                 2           2            10   10     1       0.2015143926E-02      10   10    1         0.5234271208E-01      0.3180399929E+00
          0                 3           2            10   10     1       0.9055208484E-03      10   10    1         0.2352063515E-01      0.1171936639E+00
          0                 4           2            10   10     1       0.4069024722E-03      10   10    1         0.1056918130E-01      0.5059067816E-01
          0                 5           2            10   10     1       0.1828444128E-03      10   10    1         0.4749338620E-02      0.2252784942E-01
          0                 6           1            10   10     1       0.8216229259E-04      10   10    1         0.2134147391E-02      0.1008122462E-01
          0                 7           1            10   10     1       0.3692010214E-04      10   10    1         0.9589924172E-03      0.4514971530E-02
          0                 8           1            10   10     1       0.1659024192E-04      10   10    1         0.4309287036E-03      0.2022420287E-02
          0                 9           1            10   10     1       0.7454903549E-05      10   10    1         0.1936400384E-03      0.9059811889E-03

    ------------------------------------------------
       NWT REQUIRED            9 OUTER ITERATIONS 
       AND A TOTAL OF         14 INNER ITERATIONS.
    ------------------------------------------------

 NO OUTPUT CONTROL FOR STRESS PERIOD   15   TIME STEP   20
 
 SOLVING FOR HEAD 
                                                   Max.-Head-Change                         Max.-Flux-Residual
  Residual-Control   Outer-Iter.   Inner-Iter.     Column Row Layer    Maximum-Head-Change  Column Row Layer    Maximum-Flux-Residual          L2-NORM 
          0                 1           2            10   10     1       0.4481471603E-02       2    2    1         0.2290497003E+00      0.1274212321E+01
          0                 2           2            10   10     1       0.2013784826E-02      10   10    1         0.5230745680E-01      0.3178444196E+00
          0                 3           2            10   10     1       0.9049091350E-03      10   10    1         0.2350476712E-01      0.1171151906E+00
          0                 4           2            10   10     1       0.4066271502E-03      10   10    1         0.1056203931E-01      0.5055534672E-01
          0                 5           2            10   10     1       0.1827204958E-03      10   10    1         0.4746124133E-02      0.2251188655E-01
          0                 6           1            10   10     1       0.8210652033E-04      10   10    1         0.2132700616E-02      0.1007401446E-01
          0                 7           1            10   10     1       0.3689500050E-04      10   10    1         0.9583412588E-03      0.4511715423E-02
          0                 8           1            10   10     1       0.1657894466E-04      10   10    1         0.4306356360E-03      0.2020949201E-02
          0                 9           1            10   10     1       0.7449819042E-05      10   10    1         0.1935081356E-03      0.9053178590E-03

    ------------------------------------------------
       NWT REQUIRED            9 OUTER ITERATIONS 
       AND A TOTAL OF         14 INNER ITERATIONS.
    ------------------------------------------------

 NO OUTPUT CONTROL FOR STRESS PERIOD   15   TIME STEP   21
 
 SOLVING FOR HEAD 
                                                   Max.-Head-Change                         Max.-Flux-Residual
  Residual-Control   Outer-Iter.   Inner-Iter.     Column Row Layer    Maximum-Head-Change  Column Row Layer    Maximum-Flux-Residual          L2-NORM 
          0                 1           2            10   10     1       0.4478342070E-02       2    2    1         0.2286135121E+00      0.1273086298E+01
          0                 2           2            10   10     1       0.2012376287E-02      10   10    1         0.5227091839E-01      0.3176268618E+00
          0                 3           2            10   10     1       0.9042751851E-03      10   10    1         0.2348832194E-01      0.1170341985E+00
          0                 4           2            10   10     1       0.4063418266E-03      10   10    1         0.1055463774E-01      0.5051965971E-01
          0                 5           2            10   10     1       0.1825920803E-03      10   10    1         0.4742792890E-02      0.2249578364E-01
          0                 6           1            10   10     1       0.8204872492E-04      10   10    1         0.2131201328E-02      0.1006672914E-01
          0                 7           1            10   10     1       0.3686898895E-04      10   10    1         0.9576664821E-03      0.4508420789E-02
          0                 8           1            10   10     1       0.1656723796E-04      10   10    1         0.4303319451E-03      0.2019460341E-02
          0                 9           1            10   10     1       0.7444550452E-05      10   10    1         0.1933714592E-03      0.9046452551E-03

    ------------------------------------------------
       NWT REQUIRED            9 OUTER ITERATIONS 
       AND A TOTAL OF         14 INNER ITERATIONS.
    ------------------------------------------------

 NO OUTPUT CONTROL FOR STRESS PERIOD   15   TIME STEP   22
 
 SOLVING FOR HEAD 
                                                   Max.-Head-Change                         Max.-Flux-Residual
  Residual-Control   Outer-Iter.   Inner-Iter.     Column Row Layer    Maximum-Head-Change  Column Row Layer    Maximum-Flux-Residual          L2-NORM 
          0                 1           2            10   10     1       0.4475321954E-02       2    2    1         0.2281831801E+00      0.1271911072E+01
          0                 2           2            10   10     1       0.2011016995E-02      10   10    1         0.5223565745E-01      0.3174020650E+00
          0                 3           2            10   10     1       0.9036634007E-03      10   10    1         0.2347245175E-01      0.1169513423E+00
          0                 4           2            10   10     1       0.4060664793E-03      10   10    1         0.1054749496E-01      0.5048337921E-01
          0                 5           2            10   10     1       0.1824681553E-03      10   10    1         0.4739578124E-02      0.2247952187E-01
          0                 6           1            10   10     1       0.8199295016E-04      10   10    1         0.2129754459E-02      0.1005940837E-01
          0                 7           1            10   10     1       0.3684388706E-04      10   10    1         0.9570152985E-03      0.4505121269E-02
          0                 8           1            10   10     1       0.1655594044E-04      10   10    1         0.4300388696E-03      0.2017978845E-02
          0                 9           1            10   10     1       0.7439465945E-05      10   10    1         0.1932395588E-03      0.9039829618E-03

    ------------------------------------------------
       NWT REQUIRED            9 OUTER ITERATIONS 
       AND A TOTAL OF         14 INNER ITERATIONS.
    ------------------------------------------------

 NO OUTPUT CONTROL FOR STRESS PERIOD   15   TIME STEP   23
 
 SOLVING FOR HEAD 
                                                   Max.-Head-Change                         Max.-Flux-Residual
  Residual-Control   Outer-Iter.   Inner-Iter.     Column Row Layer    Maximum-Head-Change  Column Row Layer    Maximum-Flux-Residual          L2-NORM 
          0                 1           2            10   10     1       0.4472192021E-02       2    2    1         0.2277677443E+00      0.1270932464E+01
          0                 2           2            10   10     1       0.2009608308E-02      10   10    1         0.5219911453E-01      0.3171836519E+00
          0                 3           2            10   10     1       0.9030293985E-03      10   10    1         0.2345600492E-01      0.1168596574E+00
          0                 4           2            10   10     1       0.4057811384E-03      10   10    1         0.1054009281E-01      0.5044201420E-01
          0                 5           2            10   10     1       0.1823397345E-03      10   10    1         0.4736246694E-02      0.2246088607E-01
          0                 6           1            10   10     1       0.8193515375E-04      10   10    1         0.2128255119E-02      0.1005101836E-01
          0                 7           1            10   10     1       0.3681787526E-04      10   10    1         0.9563405056E-03      0.4501344508E-02
          0                 8           1            10   10     1       0.1654423374E-04      10   10    1         0.4297351754E-03      0.2016272937E-02
          0                 9           1            10   10     1       0.7434197356E-05      10   10    1         0.1931028814E-03      0.9032101459E-03

    ------------------------------------------------
       NWT REQUIRED            9 OUTER ITERATIONS 
       AND A TOTAL OF         14 INNER ITERATIONS.
    ------------------------------------------------

 NO OUTPUT CONTROL FOR STRESS PERIOD   15   TIME STEP   24
 
 SOLVING FOR HEAD 
                                                   Max.-Head-Change                         Max.-Flux-Residual
  Residual-Control   Outer-Iter.   Inner-Iter.     Column Row Layer    Maximum-Head-Change  Column Row Layer    Maximum-Flux-Residual          L2-NORM 
          0                 1           2            10   10     1       0.4469171438E-02       2    2    1         0.2273576472E+00      0.1269995245E+01
          0                 2           2            10   10     1       0.2008248727E-02      10   10    1         0.5216384778E-01      0.3169690336E+00
          0                 3           2            10   10     1       0.9024174475E-03      10   10    1         0.2344013118E-01      0.1167700538E+00
          0                 4           2            10   10     1       0.4055056998E-03      10   10    1         0.1053294801E-01      0.5040171889E-01
          0                 5           2            10   10     1       0.1822157607E-03      10   10    1         0.4733030834E-02      0.2244275345E-01
          0                 6           1            10   10     1       0.8187935423E-04      10   10    1         0.2126807676E-02      0.1004286284E-01
          0                 7           1            10   10     1       0.3679276011E-04      10   10    1         0.9556890217E-03      0.4497676578E-02
          0                 8           1            10   10     1       0.1653293023E-04      10   10    1         0.4294419541E-03      0.2014623248E-02
          0                 9           1            10   10     1       0.7429109597E-05      10   10    1         0.1929709031E-03      0.9024680327E-03

    ------------------------------------------------
       NWT REQUIRED            9 OUTER ITERATIONS 
       AND A TOTAL OF         14 INNER ITERATIONS.
    ------------------------------------------------

 NO OUTPUT CONTROL FOR STRESS PERIOD   15   TIME STEP   25
 
 SOLVING FOR HEAD 
                                                   Max.-Head-Change                         Max.-Flux-Residual
  Residual-Control   Outer-Iter.   Inner-Iter.     Column Row Layer    Maximum-Head-Change  Column Row Layer    Maximum-Flux-Residual          L2-NORM 
          0                 1           2            10   10     1       0.4466041125E-02       2    2    1         0.2269620093E+00      0.1269043077E+01
          0                 2           2            10   10     1       0.2006840009E-02      10   10    1         0.5212730108E-01      0.3167675896E+00
          0                 3           2            10   10     1       0.9017834938E-03      10   10    1         0.2342368428E-01      0.1166884219E+00
          0                 4           2            10   10     1       0.4052204087E-03      10   10    1         0.1052554655E-01      0.5036500705E-01
          0                 5           2            10   10     1       0.1820873749E-03      10   10    1         0.4729700038E-02      0.2242618131E-01
          0                 6           1            10   10     1       0.8182157883E-04      10   10    1         0.2125308768E-02      0.1003538615E-01
          0                 7           1            10   10     1       0.3676676081E-04      10   10    1         0.9550144963E-03      0.4494305037E-02
          0                 8           1            10   10     1       0.1652123003E-04      10   10    1         0.4291384108E-03      0.2013106503E-02
          0                 9           1            10   10     1       0.7423844760E-05      10   10    1         0.1928343107E-03      0.9017914809E-03

    ------------------------------------------------
       NWT REQUIRED            9 OUTER ITERATIONS 
       AND A TOTAL OF         14 INNER ITERATIONS.
    ------------------------------------------------

 NO OUTPUT CONTROL FOR STRESS PERIOD   15   TIME STEP   26
 
 SOLVING FOR HEAD 
                                                   Max.-Head-Change                         Max.-Flux-Residual
  Residual-Control   Outer-Iter.   Inner-Iter.     Column Row Layer    Maximum-Head-Change  Column Row Layer    Maximum-Flux-Residual          L2-NORM 
          0                 1           2            10   10     1       0.4463020491E-02       2    2    1         0.2265712171E+00      0.1268216291E+01
          0                 2           2            10   10     1       0.2005480436E-02      10   10    1         0.5209203387E-01      0.3165858890E+00
          0                 3           2            10   10     1       0.9011715609E-03      10   10    1         0.2340781070E-01      0.1166110694E+00
          0                 4           2            10   10     1       0.4049449851E-03      10   10    1         0.1051840200E-01      0.5032988162E-01
          0                 5           2            10   10     1       0.1819634112E-03      10   10    1         0.4726484363E-02      0.2241028473E-01
          0                 6           1            10   10     1       0.8176578505E-04      10   10    1         0.2123861442E-02      0.1002820251E-01
          0                 7           1            10   10     1       0.3674164941E-04      10   10    1         0.9543630801E-03      0.4491060537E-02
          0                 8           1            10   10     1       0.1650992776E-04      10   10    1         0.4288452193E-03      0.2011638555E-02
          0                 9           1            10   10     1       0.7418758001E-05      10   10    1         0.1927023530E-03      0.9011215770E-03

    ------------------------------------------------
       NWT REQUIRED            9 OUTER ITERATIONS 
       AND A TOTAL OF         14 INNER ITERATIONS.
    ------------------------------------------------

 NO OUTPUT CONTROL FOR STRESS PERIOD   15   TIME STEP   27
 
 SOLVING FOR HEAD 
                                                   Max.-Head-Change                         Max.-Flux-Residual
  Residual-Control   Outer-Iter.   Inner-Iter.     Column Row Layer    Maximum-Head-Change  Column Row Layer    Maximum-Flux-Residual          L2-NORM 
          0                 1           2            10   10     1       0.4459890018E-02       2    2    1         0.2261897477E+00      0.1267395202E+01
          0                 2           2            10   10     1       0.2004071567E-02      10   10    1         0.5205548493E-01      0.3163855774E+00
          0                 3           2            10   10     1       0.9005375049E-03      10   10    1         0.2339136188E-01      0.1165274450E+00
          0                 4           2            10   10     1       0.4046596322E-03      10   10    1         0.1051099927E-01      0.5029231415E-01
          0                 5           2            10   10     1       0.1818349909E-03      10   10    1         0.4723152819E-02      0.2239332104E-01
          0                 6           1            10   10     1       0.8170799140E-04      10   10    1         0.2122362118E-02      0.1002054105E-01
          0                 7           1            10   10     1       0.3671564012E-04      10   10    1         0.9536883322E-03      0.4487601837E-02
          0                 8           1            10   10     1       0.1649822332E-04      10   10    1         0.4285415643E-03      0.2010077738E-02
          0                 9           1            10   10     1       0.7413490413E-05      10   10    1         0.1925656963E-03      0.9010368692E-03

    ------------------------------------------------
       NWT REQUIRED            9 OUTER ITERATIONS 
       AND A TOTAL OF         14 INNER ITERATIONS.
    ------------------------------------------------

 NO OUTPUT CONTROL FOR STRESS PERIOD   15   TIME STEP   28
 
 SOLVING FOR HEAD 
                                                   Max.-Head-Change                         Max.-Flux-Residual
  Residual-Control   Outer-Iter.   Inner-Iter.     Column Row Layer    Maximum-Head-Change  Column Row Layer    Maximum-Flux-Residual          L2-NORM 
          0                 1           2            10   10     1       0.4456759664E-02       2    2    1         0.2258173661E+00      0.1266410857E+01
          0                 2           2            10   10     1       0.2002662769E-02      10   10    1         0.5201893745E-01      0.3161617498E+00
          0                 3           2            10   10     1       0.8999034876E-03      10   10    1         0.2337491391E-01      0.1164394079E+00
          0                 4           2            10   10     1       0.4043743008E-03      10   10    1         0.1050359702E-01      0.5025321982E-01
          0                 5           2            10   10     1       0.1817065821E-03      10   10    1         0.4719821539E-02      0.2237571625E-01
          0                 6           1            10   10     1       0.8165020349E-04      10   10    1         0.2120862930E-02      0.1001260810E-01
          0                 7           1            10   10     1       0.3668963407E-04      10   10    1         0.9530136510E-03      0.4484030051E-02
          0                 8           1            10   10     1       0.1648651987E-04      10   10    1         0.4282379383E-03      0.2008470823E-02
          0                 9           1            10   10     1       0.7408223574E-05      10   10    1         0.1924290564E-03      0.8996952415E-03

    ------------------------------------------------
       NWT REQUIRED            9 OUTER ITERATIONS 
       AND A TOTAL OF         14 INNER ITERATIONS.
    ------------------------------------------------

 NO OUTPUT CONTROL FOR STRESS PERIOD   15   TIME STEP   29
 
 SOLVING FOR HEAD 
                                                   Max.-Head-Change                         Max.-Flux-Residual
  Residual-Control   Outer-Iter.   Inner-Iter.     Column Row Layer    Maximum-Head-Change  Column Row Layer    Maximum-Flux-Residual          L2-NORM 
          0                 1           2             2    2     1       0.6330129907E-02       2    2    1         0.3299067661E+00      0.1438322889E+01
          0                 2           2            10   10     1       0.2001303236E-02       2    2    1         0.5733643094E-01      0.3303469266E+00
          0                 3           2            10   10     1       0.8992915982E-03      10   10    1         0.2335904091E-01      0.1173985791E+00
          0                 4           2            10   10     1       0.4040989085E-03      10   10    1         0.1049645302E-01      0.5031221769E-01
          0                 5           2            10   10     1       0.1815826379E-03      10   10    1         0.4716606252E-02      0.2237735562E-01
          0                 6           1            10   10     1       0.8159442097E-04      10   10    1         0.2119415847E-02      0.1001151032E-01
          0                 7           1            10   10     1       0.3666452892E-04      10   10    1         0.9523623829E-03      0.4483336496E-02
          0                 8           1            10   10     1       0.1647522110E-04      10   10    1         0.4279448327E-03      0.2008113221E-02
          0                 9           1            10   10     1       0.7403138817E-05      10   10    1         0.1922971460E-03      0.8995176408E-03

    ------------------------------------------------
       NWT REQUIRED            9 OUTER ITERATIONS 
       AND A TOTAL OF         14 INNER ITERATIONS.
    ------------------------------------------------

 NO OUTPUT CONTROL FOR STRESS PERIOD   15   TIME STEP   30



 STREAM LISTING     PERIOD     15   STEP       30

 LAYER ROW COL. STREAM  RCH.  FLOW INTO     FLOW TO   FLOW OUT OF   OVRLND.     DIRECT     STREAM       STREAM     STREAM     STREAM   STREAMBED  STREAMBED
                SEG.NO.  NO.  STRM. RCH.    AQUIFER    STRM. RCH.    RUNOFF     PRECIP       ET          HEAD       DEPTH      WIDTH   CONDCTNC.   GRADIENT

   1    1    1     1     1    1.9897E+01  2.2004E-01   1.9677E+01  0.000E+00  0.000E+00  0.000E+00  1.09414E+03  1.097E+00  1.194E+01  5.371E-02  1.366E+00
   1    2    2     1     2    1.9677E+01  3.3950E-01   1.9338E+01  0.000E+00  0.000E+00  0.000E+00  1.08915E+03  1.092E+00  1.185E+01  8.296E-02  1.364E+00
   1    3    3     1     3    1.9338E+01  2.8830E-01   1.9049E+01  0.000E+00  0.000E+00  0.000E+00  1.08351E+03  1.087E+00  1.176E+01  7.054E-02  1.362E+00
   1    3    4     1     4    1.9049E+01  2.6446E-01   1.8785E+01  0.000E+00  0.000E+00  0.000E+00  1.07849E+03  1.082E+00  1.167E+01  6.478E-02  1.361E+00
   1    4    5     2     1    1.6785E+01  3.0775E-01   1.6477E+01  0.000E+00  0.000E+00  0.000E+00  1.07288E+03  9.456E-01  1.200E+01  7.800E-02  1.315E+00
   1    5    6     2     2    1.6477E+01  2.3618E-01   1.6241E+01  0.000E+00  0.000E+00  0.000E+00  1.06745E+03  9.363E-01  1.200E+01  6.000E-02  1.312E+00
   1    6    6     2     3    1.6241E+01  2.3569E-01   1.6005E+01  0.000E+00  0.000E+00  0.000E+00  1.06272E+03  9.281E-01  1.200E+01  6.000E-02  1.309E+00
   1    7    6     2     4    1.6005E+01  2.3520E-01   1.5770E+01  0.000E+00  0.000E+00  0.000E+00  1.05800E+03  9.200E-01  1.200E+01  6.000E-02  1.307E+00
   1    8    6     2     5    1.5770E+01  2.3471E-01   1.5535E+01  0.000E+00  0.000E+00  0.000E+00  1.05327E+03  9.118E-01  1.200E+01  6.000E-02  1.304E+00
   1    3    5     3     1    2.0000E+00  2.8252E-01   1.7175E+00  0.000E+00  0.000E+00  0.000E+00  1.07555E+03  1.909E+00  9.636E+00  7.227E-02  1.955E+00
   1    3    6     3     2    1.7175E+00  2.4905E-01   1.4684E+00  0.000E+00  0.000E+00  0.000E+00  1.07264E+03  1.727E+00  8.909E+00  6.682E-02  1.864E+00
   1    3    7     3     3    1.4684E+00  1.9718E-01   1.2712E+00  0.000E+00  0.000E+00  0.000E+00  1.06987E+03  1.555E+00  8.218E+00  5.547E-02  1.777E+00
   1    4    8     3     4    1.2712E+00  2.2567E-01   1.0456E+00  0.000E+00  0.000E+00  0.000E+00  1.06682E+03  1.364E+00  7.455E+00  6.709E-02  1.682E+00
   1    5    8     3     5    1.0456E+00  1.5790E-01   8.8768E-01  0.000E+00  0.000E+00  0.000E+00  1.06362E+03  1.164E+00  6.655E+00  4.991E-02  1.582E+00
   1    6    8     3     6    8.8768E-01  5.5980E-02   8.3170E-01  0.000E+00  0.000E+00  0.000E+00  1.06158E+03  1.036E+00  6.145E+00  1.844E-02  1.518E+00
   1    5   10     4     1    1.0000E+01  9.0919E-02   9.9091E+00  0.000E+00  0.000E+00  0.000E+00  1.07836E+03  6.368E-01  1.000E+01  2.500E-02  1.212E+00
   1    5    9     4     2    9.9091E+00  1.8158E-01   9.7275E+00  0.000E+00  0.000E+00  0.000E+00  1.07154E+03  6.315E-01  1.000E+01  5.000E-02  1.211E+00
   1    6    8     4     3    9.7275E+00  1.2689E-01   9.6006E+00  0.000E+00  0.000E+00  0.000E+00  1.06381E+03  6.256E-01  1.000E+01  3.500E-02  1.209E+00
   1    6    8     5     1    1.0432E+01  2.2686E-01   1.0205E+01  0.000E+00  0.000E+00  0.000E+00  1.05868E+03  6.790E-01  1.542E+01  6.166E-02  1.226E+00
   1    7    7     5     2    1.0205E+01  2.7894E-01   9.9265E+00  0.000E+00  0.000E+00  0.000E+00  1.05417E+03  6.732E-01  1.519E+01  7.594E-02  1.224E+00
   1    8    7     5     3    9.9265E+00  1.9221E-01   9.7343E+00  0.000E+00  0.000E+00  0.000E+00  1.04992E+03  6.676E-01  1.497E+01  5.241E-02  1.223E+00
   1    8    6     5     4    9.7343E+00  1.3577E-01   9.5985E+00  0.000E+00  0.000E+00  0.000E+00  1.04691E+03  6.637E-01  1.482E+01  3.706E-02  1.221E+00
   1    9    6     6     1    2.5134E+01  2.5328E-01   2.4881E+01  0.000E+00  0.000E+00  0.000E+00  1.04395E+03  1.221E+00  1.200E+01  6.000E-02  1.407E+00
   1   10    7     6     2    2.4881E+01  2.5283E-01   2.4628E+01  0.000E+00  0.000E+00  0.000E+00  1.03940E+03  1.214E+00  1.200E+01  6.000E-02  1.405E+00
   1   11    7     6     3    2.4628E+01  2.5238E-01   2.4375E+01  0.000E+00  0.000E+00  0.000E+00  1.03484E+03  1.206E+00  1.200E+01  6.000E-02  1.402E+00
   1   12    7     6     4    2.4375E+01  2.5194E-01   2.4124E+01  0.000E+00  0.000E+00  0.000E+00  1.03029E+03  1.199E+00  1.200E+01  6.000E-02  1.400E+00
   1   13    7     6     5    2.4124E+01 -9.4758E-02   2.4218E+01  0.000E+00  0.000E+00  0.000E+00  1.02711E+03  1.197E+00  1.200E+01  2.400E-01 -1.316E-01
   1   14    9     7     1    1.5000E+02  1.1587E+00   1.4884E+02  0.000E+00  0.000E+00  0.000E+00  1.03987E+03  2.288E+00  5.530E+01  5.593E-01  6.905E-01
   1   13    8     7     2    1.4884E+02  1.5964E+00   1.4724E+02  0.000E+00  0.000E+00  0.000E+00  1.03478E+03  2.281E+00  5.526E+01  6.149E-01  8.655E-01
   1   13    7     7     3    1.4724E+02  1.2245E+00   1.4602E+02  0.000E+00  0.000E+00  0.000E+00  1.02969E+03  2.273E+00  5.523E+01  5.586E-01  7.307E-01
   1   13    6     8     1    1.7024E+02  6.7941E-01   1.6956E+02  0.000E+00  0.000E+00  0.000E+00  1.02483E+03  2.952E+00  4.280E+01  4.361E-01  5.193E-01
   1   13    5     8     2    1.6956E+02 -1.5637E-01   1.6972E+02  0.000E+00  0.000E+00  0.000E+00  1.01857E+03  2.950E+00  4.277E+01  4.359E+00 -1.196E-02
   1   13    4     8     3    1.6972E+02 -3.2133E+00   1.7293E+02  0.000E+00  0.000E+00  0.000E+00  1.01234E+03  2.961E+00  4.293E+01  4.375E+00 -2.448E-01
   1   13    3     8     4    1.7293E+02 -4.1220E+00   1.7705E+02  0.000E+00  0.000E+00  0.000E+00  1.00611E+03  2.984E+00  4.327E+01  4.410E+00 -3.116E-01
   1   13    2     8     5    1.7705E+02 -2.6562E+00   1.7971E+02  0.000E+00  0.000E+00  0.000E+00  9.99881E+02  3.006E+00  4.359E+01  4.442E+00 -1.993E-01
   1   13    1     8     6    1.7971E+02 -1.9732E+00   1.8168E+02  0.000E+00  0.000E+00  0.000E+00  9.94896E+02  3.021E+00  4.380E+01  2.678E+00 -2.456E-01
   1    6    8     9     1    0.0000E+00  0.0000E+00   0.0000E+00  0.000E+00  0.000E+00  0.000E+00  1.07850E+03  0.000E+00  4.000E+00  0.000E+00  1.000E+00





UNSATURATED ZONE PACKAGE VOLUMETRIC BUDGET FOR  TIME STEP    30 STRESS PERIOD   15
  ------------------------------------------------------------------------------



     CUMULATIVE VOLUMES      L**3       RATES FOR THIS TIME STEP      L**3/T
     ------------------                 ------------------------

           IN:                                      IN:
           ---                                      ---
        INFILTRATION =    26615969.2213          INFILTRATION =       0.0000E+00

          OUT:                                     OUT:
          ----                                     ----
              UZF ET =   553807316.0008                UZF ET =       0.0000E+00
        UZF RECHARGE =   881714952.7490          UZF RECHARGE =          21.1209

            IN - OUT = -1408906299.5285              IN - OUT =         -21.1209

          STORAGE:                                 STORAGE:
          --------                                 --------
      STORAGE CHANGE = -1408880830.2777        STORAGE CHANGE =         -21.1209

 PERCENT DISCREPANCY IS DIFFERENCE BETWEEN IN-OUT MINUS CHANGE IN STORAGE
 DIVIDED BY THE AVERAGE OF IN AND OUT TIMES 100

 PERCENT DISCREPANCY =          -0.00     PERCENT DISCREPANCY =          -0.00






1
  VOLUMETRIC BUDGET FOR ENTIRE MODEL AT END OF TIME STEP   30, STRESS PERIOD  15
  ------------------------------------------------------------------------------

     CUMULATIVE VOLUMES      L**3       RATES FOR THIS TIME STEP      L**3/T
     ------------------                 ------------------------

           IN:                                      IN:
           ---                                      ---
             STORAGE     =    31874850.0000               STORAGE     =       2.2575E-02
       CONSTANT HEAD     =           0.0000         CONSTANT HEAD     =           0.0000
               WELLS     =           0.0000                 WELLS     =           0.0000
     HEAD DEP BOUNDS     =    10164188.0000       HEAD DEP BOUNDS     =           0.2737
      STREAM LEAKAGE     =   407064960.0000        STREAM LEAKAGE     =          10.4328
        UZF RECHARGE     =   881715648.0000          UZF RECHARGE     =          21.1208
               GW ET     =           0.0000                 GW ET     =           0.0000
     SURFACE LEAKAGE     =           0.0000       SURFACE LEAKAGE     =           0.0000
    SUPPLEMENTARY WELLS  =           0.0000      SUPPLEMENTARY WELLS  =           0.0000

                TOTAL IN =  1330819584.0000                  TOTAL IN =          31.8499

          OUT:                                     OUT:
          ----                                     ----
             STORAGE     =   837741632.0000               STORAGE     =          19.3237
       CONSTANT HEAD     =           0.0000         CONSTANT HEAD     =           0.0000
               WELLS     =           0.0000                 WELLS     =           0.0000
     HEAD DEP BOUNDS     =    10618685.0000       HEAD DEP BOUNDS     =           0.2900
      STREAM LEAKAGE     =   398412896.0000        STREAM LEAKAGE     =          12.2159
        UZF RECHARGE     =           0.0000          UZF RECHARGE     =           0.0000
               GW ET     =    83871160.0000                 GW ET     =       1.7500E-02
     SURFACE LEAKAGE     =           0.0000       SURFACE LEAKAGE     =           0.0000
    SUPPLEMENTARY WELLS  =       36404.7930      SUPPLEMENTARY WELLS  =           0.0000

               TOTAL OUT =  1330680704.0000                 TOTAL OUT =          31.8472

                IN - OUT =      138880.0000                  IN - OUT =       2.7714E-03

     PERCENT DISCREPANCY =           0.01         PERCENT DISCREPANCY =           0.01






         TIME SUMMARY AT END OF TIME STEP   30 IN STRESS PERIOD   15
                    SECONDS     MINUTES      HOURS       DAYS        YEARS
                    -----------------------------------------------------------
   TIME STEP LENGTH  87600.      1460.0      24.333      1.0139     2.77588E-03
 STRESS PERIOD TIME 2.62800E+06  43800.      730.00      30.417     8.32763E-02
         TOTAL TIME 3.68784E+07 6.14640E+05  10244.      426.83      1.1686    
1
1
                            STRESS PERIOD NO.   16, LENGTH =   2628000.    
                            -----------------------------------------------

                              NUMBER OF TIME STEPS =    30

                               MULTIPLIER FOR DELT =     1.000

                            INITIAL TIME STEP SIZE =   87600.00    

 WELL NO.  LAYER   ROW   COL   STRESS RATE         
 --------------------------------------------------
      1      1      6      4       0.000    
      2      1      6      7       0.000    
      3      1      7      4       0.000    
      4      1      7      5       0.000    
      5      1      8      4       0.000    
      6      1      8      5       0.000    
      7      1      9      4       0.000    
      8      1      9      5       0.000    
      9      1     10      4       0.000    
     10      1     10      5       0.000    

     10 WELLS

 REUSING NON-PARAMETER GHB CELLS FROM LAST STRESS PERIOD

      2 GHB CELLS

 REUSING STREAM SEGMENT DATA FROM LAST STRESS PERIOD



            AREAL INFILTRATION RATE
 READING ON UNIT   19 WITH FORMAT: (10F4.0)            

            1           2           3           4           5           6           7           8           9          10
 ........................................................................................................................
   1    0.000       0.000       0.000       0.000       0.000       0.000       0.000       0.000       0.000       0.000    
   2    0.000       0.000       0.000       0.000       0.000       0.000       0.000       0.000       0.000       0.000    
   3    0.000       0.000       0.000       0.000       0.000       0.000       0.000       0.000       0.000       0.000    
   4    0.000       0.000       0.000       0.000       0.000       0.000       0.000       0.000       0.000       0.000    
   5    0.000       0.000       0.000       0.000       0.000       0.000       0.000       0.000       0.000       0.000    
   6    0.000       0.000       0.000       0.000       0.000       0.000       0.000       0.000       0.000       0.000    
   7    0.000       0.000       0.000       0.000       0.000       0.000       0.000       0.000       0.000       0.000    
   8    0.000       0.000       0.000       0.000       0.000       0.000       0.000       0.000       0.000       0.000    
   9    0.000       0.000       0.000       0.000       0.000       0.000       0.000       0.000       0.000       0.000    
  10    0.000       0.000       0.000       0.000       0.000       0.000       0.000       0.000       0.000       0.000    
  11    0.000       0.000       0.000       0.000       0.000       0.000       0.000       0.000       0.000       0.000    
  12    0.000       0.000       0.000       0.000       0.000       0.000       0.000       0.000       0.000       0.000    
  13    0.000       0.000       0.000       0.000       0.000       0.000       0.000       0.000       0.000       0.000    
  14    0.000       0.000       0.000       0.000       0.000       0.000       0.000       0.000       0.000       0.000    
  15    0.000       0.000       0.000       0.000       0.000       0.000       0.000       0.000       0.000       0.000    

                  ET RATE =  1.000000E-09

 USING ET EXTINCTION DEPTH FROM PREVIOUS STRESS PERIOD. CURRENT PERIOD IS:      16

 USING EXTINCTION WATER CONTENT FROM PREVIOUS STRESS PERIOD. CURRENT PERIOD IS:      16

 PROCESSING AGO STRESS PERIOD DATA

 READING AGO STRESS PERIOD DATA

 READING IRRIGATION STREAM

 READING IRRIGATION WELL

 READING SUPPLEMENTAL WEL

 END PROCESSING AGO STRESS PERIOD DATA OPTIONS
 
 SOLVING FOR HEAD 
                                                   Max.-Head-Change                         Max.-Flux-Residual
  Residual-Control   Outer-Iter.   Inner-Iter.     Column Row Layer    Maximum-Head-Change  Column Row Layer    Maximum-Flux-Residual          L2-NORM 
          0                 1           2             2    2     1       0.6487676502E-02       2    2    1         0.3381410484E+00      0.1432984953E+01
          0                 2           2            10   10     1       0.1999894487E-02       2    2    1         0.5876109340E-01      0.3307965157E+00
          0                 3           2            10   10     1       0.8986576223E-03      10   10    1         0.2334259361E-01      0.1174460715E+00
          0                 4           2            10   10     1       0.4038136041E-03      10   10    1         0.1048905129E-01      0.5030389153E-01
          0                 5           2            10   10     1       0.1814542448E-03      10   10    1         0.4713275294E-02      0.2237106628E-01
          0                 6           1            10   10     1       0.8153664182E-04      10   10    1         0.2117916849E-02      0.1000843077E-01
          0                 7           1            10   10     1       0.3663852738E-04      10   10    1         0.9516878064E-03      0.4481901475E-02
          0                 8           1            10   10     1       0.1646352016E-04      10   10    1         0.4276412636E-03      0.2007449917E-02
          0                 9           1            10   10     1       0.7397873479E-05      10   10    1         0.1921605386E-03      0.8992114992E-03

    ------------------------------------------------
       NWT REQUIRED            9 OUTER ITERATIONS 
       AND A TOTAL OF         14 INNER ITERATIONS.
    ------------------------------------------------

 NO OUTPUT CONTROL FOR STRESS PERIOD   16   TIME STEP    1
 
 SOLVING FOR HEAD 
                                                   Max.-Head-Change                         Max.-Flux-Residual
  Residual-Control   Outer-Iter.   Inner-Iter.     Column Row Layer    Maximum-Head-Change  Column Row Layer    Maximum-Flux-Residual          L2-NORM 
          0                 1           2             2    2     1       0.6459233765E-02       2    2    1         0.3366418844E+00      0.1422945584E+01
          0                 2           2            10   10     1       0.1998485706E-02       2    2    1         0.5850515057E-01      0.3302697885E+00
          0                 3           2            10   10     1       0.8980235915E-03      10   10    1         0.2332614573E-01      0.1174063387E+00
          0                 4           2            10   10     1       0.4035282569E-03      10   10    1         0.1048164883E-01      0.5029209517E-01
          0                 5           2            10   10     1       0.1813258253E-03      10   10    1         0.4709943814E-02      0.2236569003E-01
          0                 6           1            10   10     1       0.8147884741E-04      10   10    1         0.2116417526E-02      0.1000587520E-01
          0                 7           1            10   10     1       0.3661251758E-04      10   10    1         0.9510130456E-03      0.4480687899E-02
          0                 8           1            10   10     1       0.1645181471E-04      10   10    1         0.4273375974E-03      0.2006876371E-02
          0                 9           1            10   10     1       0.7392605640E-05      10   10    1         0.1920238809E-03      0.8989417569E-03

    ------------------------------------------------
       NWT REQUIRED            9 OUTER ITERATIONS 
       AND A TOTAL OF         14 INNER ITERATIONS.
    ------------------------------------------------

 NO OUTPUT CONTROL FOR STRESS PERIOD   16   TIME STEP    2
 
 SOLVING FOR HEAD 
                                                   Max.-Head-Change                         Max.-Flux-Residual
  Residual-Control   Outer-Iter.   Inner-Iter.     Column Row Layer    Maximum-Head-Change  Column Row Layer    Maximum-Flux-Residual          L2-NORM 
          0                 1           2             2    2     1       0.6431313574E-02       2    2    1         0.3351703033E+00      0.1413912653E+01
          0                 2           2            10   10     1       0.1997077146E-02       2    2    1         0.5825390579E-01      0.3297400139E+00
          0                 3           2            10   10     1       0.8973897186E-03      10   10    1         0.2330970072E-01      0.1173607411E+00
          0                 4           2            10   10     1       0.4032430075E-03      10   10    1         0.1047424834E-01      0.5027932936E-01
          0                 5           2            10   10     1       0.1811974606E-03      10   10    1         0.4706613516E-02      0.2236010976E-01
          0                 6           1            10   10     1       0.8142108327E-04      10   10    1         0.2114918875E-02      0.1000326055E-01
          0                 7           1            10   10     1       0.3658652379E-04      10   10    1         0.9503386500E-03      0.4479456366E-02
          0                 8           1            10   10     1       0.1644011802E-04      10   10    1         0.4270341209E-03      0.2006301907E-02
          0                 9           1            10   10     1       0.7387341803E-05      10   10    1         0.1918873107E-03      0.8986831602E-03

    ------------------------------------------------
       NWT REQUIRED            9 OUTER ITERATIONS 
       AND A TOTAL OF         14 INNER ITERATIONS.
    ------------------------------------------------

 NO OUTPUT CONTROL FOR STRESS PERIOD   16   TIME STEP    3
 
 SOLVING FOR HEAD 
                                                   Max.-Head-Change                         Max.-Flux-Residual
  Residual-Control   Outer-Iter.   Inner-Iter.     Column Row Layer    Maximum-Head-Change  Column Row Layer    Maximum-Flux-Residual          L2-NORM 
          0                 1           2             2    2     1       0.6403902725E-02       2    2    1         0.3337256492E+00      0.1406103687E+01
          0                 2           2            10   10     1       0.1995668817E-02       2    2    1         0.5800723630E-01      0.3292922276E+00
          0                 3           2            10   10     1       0.8967559577E-03      10   10    1         0.2329325844E-01      0.1173191085E+00
          0                 4           2            10   10     1       0.4029578114E-03      10   10    1         0.1046684918E-01      0.5026619137E-01
          0                 5           2            10   10     1       0.1810691221E-03      10   10    1         0.4703283856E-02      0.2235418770E-01
          0                 6           1            10   10     1       0.8136333087E-04      10   10    1         0.2113420520E-02      0.1000048119E-01
          0                 7           1            10   10     1       0.3656053600E-04      10   10    1         0.9496643964E-03      0.4478148483E-02
          0                 8           1            10   10     1       0.1642842308E-04      10   10    1         0.4267307046E-03      0.2005694439E-02
          0                 9           1            10   10     1       0.7382079467E-05      10   10    1         0.1917507808E-03      0.8984121481E-03

    ------------------------------------------------
       NWT REQUIRED            9 OUTER ITERATIONS 
       AND A TOTAL OF         14 INNER ITERATIONS.
    ------------------------------------------------

 NO OUTPUT CONTROL FOR STRESS PERIOD   16   TIME STEP    4
 
 SOLVING FOR HEAD 
                                                   Max.-Head-Change                         Max.-Flux-Residual
  Residual-Control   Outer-Iter.   Inner-Iter.     Column Row Layer    Maximum-Head-Change  Column Row Layer    Maximum-Flux-Residual          L2-NORM 
          0                 1           2             2    2     1       0.6377165956E-02       2    2    1         0.3323165349E+00      0.1399369224E+01
          0                 2           2            10   10     1       0.1994260551E-02       2    2    1         0.5776663148E-01      0.3288677597E+00
          0                 3           2            10   10     1       0.8961221861E-03      10   10    1         0.2327681671E-01      0.1172676847E+00
          0                 4           2            10   10     1       0.4026725938E-03      10   10    1         0.1045944981E-01      0.5024837863E-01
          0                 5           2            10   10     1       0.1809407659E-03      10   10    1         0.4699953903E-02      0.2234619186E-01
          0                 6           1            10   10     1       0.8130556773E-04      10   10    1         0.2111921953E-02      0.9996780417E-02
          0                 7           1            10   10     1       0.3653454121E-04      10   10    1         0.9489900059E-03      0.4476432808E-02
          0                 8           1            10   10     1       0.1641672513E-04      10   10    1         0.4264272180E-03      0.2004890642E-02
          0                 9           1            10   10     1       0.7376815380E-05      10   10    1         0.1916142074E-03      0.8980183540E-03

    ------------------------------------------------
       NWT REQUIRED            9 OUTER ITERATIONS 
       AND A TOTAL OF         14 INNER ITERATIONS.
    ------------------------------------------------

 NO OUTPUT CONTROL FOR STRESS PERIOD   16   TIME STEP    5
 
 SOLVING FOR HEAD 
                                                   Max.-Head-Change                         Max.-Flux-Residual
  Residual-Control   Outer-Iter.   Inner-Iter.     Column Row Layer    Maximum-Head-Change  Column Row Layer    Maximum-Flux-Residual          L2-NORM 
          0                 1           2             2    2     1       0.6350910605E-02       2    2    1         0.3309328523E+00      0.1393486172E+01
          0                 2           2            10   10     1       0.1992852602E-02       2    2    1         0.5753035299E-01      0.3284915933E+00
          0                 3           2            10   10     1       0.8954886140E-03      10   10    1         0.2326037896E-01      0.1172224455E+00
          0                 4           2            10   10     1       0.4023874907E-03      10   10    1         0.1045205289E-01      0.5023242968E-01
          0                 5           2            10   10     1       0.1808124729E-03      10   10    1         0.4696625352E-02      0.2233893837E-01
          0                 6           1            10   10     1       0.8124783760E-04      10   10    1         0.2110424140E-02      0.9993393394E-02
          0                 7           1            10   10     1       0.3650856343E-04      10   10    1         0.9483160100E-03      0.4474853497E-02
          0                 8           1            10   10     1       0.1640503619E-04      10   10    1         0.4261239363E-03      0.2004161300E-02
          0                 9           1            10   10     1       0.7371555545E-05      10   10    1         0.1914777350E-03      0.8976822740E-03

    ------------------------------------------------
       NWT REQUIRED            9 OUTER ITERATIONS 
       AND A TOTAL OF         14 INNER ITERATIONS.
    ------------------------------------------------

 NO OUTPUT CONTROL FOR STRESS PERIOD   16   TIME STEP    6
 
 SOLVING FOR HEAD 
                                                   Max.-Head-Change                         Max.-Flux-Residual
  Residual-Control   Outer-Iter.   Inner-Iter.     Column Row Layer    Maximum-Head-Change  Column Row Layer    Maximum-Flux-Residual          L2-NORM 
          0                 1           2             2    2     1       0.6325213871E-02       2    2    1         0.3295786319E+00      0.1388293769E+01
          0                 2           2            10   10     1       0.1991444779E-02       2    2    1         0.5729909940E-01      0.3281363607E+00
          0                 3           2            10   10     1       0.8948550568E-03      10   10    1         0.2324394247E-01      0.1171669040E+00
          0                 4           2            10   10     1       0.4021023763E-03      10   10    1         0.1044465606E-01      0.5021117335E-01
          0                 5           2            10   10     1       0.1806841660E-03      10   10    1         0.4693296616E-02      0.2232936593E-01
          0                 6           1            10   10     1       0.8119009721E-04      10   10    1         0.2108926147E-02      0.9989010991E-02
          0                 7           1            10   10     1       0.3648257964E-04      10   10    1         0.9476418936E-03      0.4472845857E-02
          0                 8           1            10   10     1       0.1639334325E-04      10   10    1         0.4258205770E-03      0.2003238051E-02
          0                 9           1            10   10     1       0.7366293458E-05      10   10    1         0.1913412213E-03      0.8972580101E-03

    ------------------------------------------------
       NWT REQUIRED            9 OUTER ITERATIONS 
       AND A TOTAL OF         14 INNER ITERATIONS.
    ------------------------------------------------

 NO OUTPUT CONTROL FOR STRESS PERIOD   16   TIME STEP    7
 
 SOLVING FOR HEAD 
                                                   Max.-Head-Change                         Max.-Flux-Residual
  Residual-Control   Outer-Iter.   Inner-Iter.     Column Row Layer    Maximum-Head-Change  Column Row Layer    Maximum-Flux-Residual          L2-NORM 
          0                 1           2             2    2     1       0.6300062585E-02       2    2    1         0.3282532019E+00      0.1383635685E+01
          0                 2           2            10   10     1       0.1990037128E-02       2    2    1         0.5707274993E-01      0.3278090110E+00
          0                 3           2            10   10     1       0.8942215860E-03      10   10    1         0.2322750805E-01      0.1171179932E+00
          0                 4           2            10   10     1       0.4018173033E-03      10   10    1         0.1043726024E-01      0.5019310932E-01
          0                 5           2            10   10     1       0.1805558792E-03      10   10    1         0.4689968380E-02      0.2232124713E-01
          0                 6           1            10   10     1       0.8113236708E-04      10   10    1         0.2107428401E-02      0.9985273135E-02
          0                 7           1            10   10     1       0.3645660086E-04      10   10    1         0.9469678955E-03      0.4471124048E-02
          0                 8           1            10   10     1       0.1638165256E-04      10   10    1         0.4255172726E-03      0.2002448623E-02
          0                 9           1            10   10     1       0.7361032873E-05      10   10    1         0.1912047339E-03      0.8968925640E-03

    ------------------------------------------------
       NWT REQUIRED            9 OUTER ITERATIONS 
       AND A TOTAL OF         14 INNER ITERATIONS.
    ------------------------------------------------

 NO OUTPUT CONTROL FOR STRESS PERIOD   16   TIME STEP    8
 
 SOLVING FOR HEAD 
                                                   Max.-Head-Change                         Max.-Flux-Residual
  Residual-Control   Outer-Iter.   Inner-Iter.     Column Row Layer    Maximum-Head-Change  Column Row Layer    Maximum-Flux-Residual          L2-NORM 
          0                 1           2             2    2     1       0.6275443730E-02       2    2    1         0.3269558751E+00      0.1379623876E+01
          0                 2           2            10   10     1       0.1988629880E-02       2    2    1         0.5685118759E-01      0.3275064969E+00
          0                 3           2            10   10     1       0.8935883529E-03      10   10    1         0.2321107859E-01      0.1170644388E+00
          0                 4           2            10   10     1       0.4015323635E-03      10   10    1         0.1042986733E-01      0.5017244181E-01
          0                 5           2            10   10     1       0.1804276643E-03      10   10    1         0.4686641750E-02      0.2231203759E-01
          0                 6           1            10   10     1       0.8107467422E-04      10   10    1         0.2105931505E-02      0.9981088105E-02
          0                 7           1            10   10     1       0.3643064083E-04      10   10    1         0.9462943359E-03      0.4469213900E-02
          0                 8           1            10   10     1       0.1636997163E-04      10   10    1         0.4252141926E-03      0.2001690600E-02
          0                 9           1            10   10     1       0.7355776789E-05      10   10    1         0.1910683562E-03      0.8968006893E-03

    ------------------------------------------------
       NWT REQUIRED            9 OUTER ITERATIONS 
       AND A TOTAL OF         14 INNER ITERATIONS.
    ------------------------------------------------

 NO OUTPUT CONTROL FOR STRESS PERIOD   16   TIME STEP    9
 
 SOLVING FOR HEAD 
                                                   Max.-Head-Change                         Max.-Flux-Residual
  Residual-Control   Outer-Iter.   Inner-Iter.     Column Row Layer    Maximum-Head-Change  Column Row Layer    Maximum-Flux-Residual          L2-NORM 
          0                 1           2             2    2     1       0.6251256435E-02       2    2    1         0.3256813214E+00      0.1376068221E+01
          0                 2           2            10   10     1       0.1987222841E-02       2    2    1         0.5663350601E-01      0.3272295767E+00
          0                 3           2            10   10     1       0.8929551723E-03      10   10    1         0.2319465136E-01      0.1170104613E+00
          0                 4           2            10   10     1       0.4012474288E-03      10   10    1         0.1042247494E-01      0.5015063019E-01
          0                 5           2            10   10     1       0.1802994429E-03      10   10    1         0.4683315138E-02      0.2230214819E-01
          0                 6           1            10   10     1       0.8101697510E-04      10   10    1         0.2104434531E-02      0.9976551610E-02
          0                 7           1            10   10     1       0.3640467656E-04      10   10    1         0.9456207007E-03      0.4467133219E-02
          0                 8           1            10   10     1       0.1635828769E-04      10   10    1         0.4249110603E-03      0.2000620227E-02
          0                 9           1            10   10     1       0.7350519455E-05      10   10    1         0.1909319546E-03      0.8960595909E-03

    ------------------------------------------------
       NWT REQUIRED            9 OUTER ITERATIONS 
       AND A TOTAL OF         14 INNER ITERATIONS.
    ------------------------------------------------

 NO OUTPUT CONTROL FOR STRESS PERIOD   16   TIME STEP   10
 
 SOLVING FOR HEAD 
                                                   Max.-Head-Change                         Max.-Flux-Residual
  Residual-Control   Outer-Iter.   Inner-Iter.     Column Row Layer    Maximum-Head-Change  Column Row Layer    Maximum-Flux-Residual          L2-NORM 
          0                 1           2             2    2     1       0.6227578941E-02       2    2    1         0.3244336732E+00      0.1372927513E+01
          0                 2           2            10   10     1       0.1985766845E-02       2    2    1         0.5642040839E-01      0.3269830390E+00
          0                 3           2            10   10     1       0.8923000224E-03      10   10    1         0.2317765287E-01      0.1169659373E+00
          0                 4           2            10   10     1       0.4009526356E-03      10   10    1         0.1041482619E-01      0.5013317552E-01
          0                 5           2            10   10     1       0.1801667980E-03      10   10    1         0.4679873489E-02      0.2229417607E-01
          0                 6           1            10   10     1       0.8095729060E-04      10   10    1         0.2102885930E-02      0.9972846077E-02
          0                 7           1            10   10     1       0.3637782163E-04      10   10    1         0.9449239024E-03      0.4465411602E-02
          0                 8           1            10   10     1       0.1634620432E-04      10   10    1         0.4245975326E-03      0.1999909355E-02
          0                 9           1            10   10     1       0.7345082291E-05      10   10    1         0.1907908809E-03      0.8959163508E-03

    ------------------------------------------------
       NWT REQUIRED            9 OUTER ITERATIONS 
       AND A TOTAL OF         14 INNER ITERATIONS.
    ------------------------------------------------

 NO OUTPUT CONTROL FOR STRESS PERIOD   16   TIME STEP   11
 
 SOLVING FOR HEAD 
                                                   Max.-Head-Change                         Max.-Flux-Residual
  Residual-Control   Outer-Iter.   Inner-Iter.     Column Row Layer    Maximum-Head-Change  Column Row Layer    Maximum-Flux-Residual          L2-NORM 
          0                 1           2             2    2     1       0.6204399524E-02       2    2    1         0.3232122934E+00      0.1369808026E+01
          0                 2           2            10   10     1       0.1984360544E-02       2    2    1         0.5621179117E-01      0.3266973842E+00
          0                 3           2            10   10     1       0.8916671907E-03      10   10    1         0.2316123435E-01      0.1169088522E+00
          0                 4           2            10   10     1       0.4006678652E-03      10   10    1         0.1040743791E-01      0.5011100393E-01
          0                 5           2            10   10     1       0.1800386539E-03      10   10    1         0.4676548805E-02      0.2228425225E-01
          0                 6           1            10   10     1       0.8089962725E-04      10   10    1         0.2101389857E-02      0.9968321043E-02
          0                 7           1            10   10     1       0.3635187411E-04      10   10    1         0.9442506919E-03      0.4463345860E-02
          0                 8           1            10   10     1       0.1633452864E-04      10   10    1         0.4242946039E-03      0.1998880094E-02
          0                 9           1            10   10     1       0.7339828709E-05      10   10    1         0.1906545692E-03      0.8952612737E-03

    ------------------------------------------------
       NWT REQUIRED            9 OUTER ITERATIONS 
       AND A TOTAL OF         14 INNER ITERATIONS.
    ------------------------------------------------

 NO OUTPUT CONTROL FOR STRESS PERIOD   16   TIME STEP   12
 
 SOLVING FOR HEAD 
                                                   Max.-Head-Change                         Max.-Flux-Residual
  Residual-Control   Outer-Iter.   Inner-Iter.     Column Row Layer    Maximum-Head-Change  Column Row Layer    Maximum-Flux-Residual          L2-NORM 
          0                 1           2             2    2     1       0.6181618139E-02       2    2    1         0.3220119364E+00      0.1367188684E+01
          0                 2           2            10   10     1       0.1982954561E-02       2    2    1         0.5600675131E-01      0.3264648018E+00
          0                 3           2            10   10     1       0.8910345098E-03      10   10    1         0.2314481958E-01      0.1168589182E+00
          0                 4           2            10   10     1       0.4003831661E-03      10   10    1         0.1040005140E-01      0.5009031939E-01
          0                 5           2            10   10     1       0.1799105437E-03      10   10    1         0.4673224972E-02      0.2227474234E-01
          0                 6           1            10   10     1       0.8084198041E-04      10   10    1         0.2099894184E-02      0.9963914023E-02
          0                 7           1            10   10     1       0.3632593385E-04      10   10    1         0.9435776620E-03      0.4461309543E-02
          0                 8           1            10   10     1       0.1632285621E-04      10   10    1         0.4239917555E-03      0.1997942171E-02
          0                 9           1            10   10     1       0.7334576377E-05      10   10    1         0.1905182960E-03      0.8948322768E-03

    ------------------------------------------------
       NWT REQUIRED            9 OUTER ITERATIONS 
       AND A TOTAL OF         14 INNER ITERATIONS.
    ------------------------------------------------

 NO OUTPUT CONTROL FOR STRESS PERIOD   16   TIME STEP   13
 
 SOLVING FOR HEAD 
                                                   Max.-Head-Change                         Max.-Flux-Residual
  Residual-Control   Outer-Iter.   Inner-Iter.     Column Row Layer    Maximum-Head-Change  Column Row Layer    Maximum-Flux-Residual          L2-NORM 
          0                 1           2             2    2     1       0.6159402194E-02       2    2    1         0.3208414012E+00      0.1364683921E+01
          0                 2           2            10   10     1       0.1981499692E-02       2    2    1         0.5580679774E-01      0.3262022932E+00
          0                 3           2            10   10     1       0.8903798891E-03      10   10    1         0.2312783434E-01      0.1167917268E+00
          0                 4           2            10   10     1       0.4000886200E-03      10   10    1         0.1039240888E-01      0.5006293822E-01
          0                 5           2            10   10     1       0.1797780136E-03      10   10    1         0.4669786232E-02      0.2226271243E-01
          0                 6           1            10   10     1       0.8078234943E-04      10   10    1         0.2098346939E-02      0.9958552360E-02
          0                 7           1            10   10     1       0.3629910368E-04      10   10    1         0.9428814903E-03      0.4458907455E-02
          0                 8           1            10   10     1       0.1631078435E-04      10   10    1         0.4236785171E-03      0.1996863035E-02
          0                 9           1            10   10     1       0.7329144465E-05      10   10    1         0.1903773556E-03      0.8943452621E-03

    ------------------------------------------------
       NWT REQUIRED            9 OUTER ITERATIONS 
       AND A TOTAL OF         14 INNER ITERATIONS.
    ------------------------------------------------

 NO OUTPUT CONTROL FOR STRESS PERIOD   16   TIME STEP   14
 
 SOLVING FOR HEAD 
                                                   Max.-Head-Change                         Max.-Flux-Residual
  Residual-Control   Outer-Iter.   Inner-Iter.     Column Row Layer    Maximum-Head-Change  Column Row Layer    Maximum-Flux-Residual          L2-NORM 
          0                 1           2             2    2     1       0.6137561707E-02       2    2    1         0.3196906797E+00      0.1362564397E+01
          0                 2           2            10   10     1       0.1980094610E-02       2    2    1         0.5561022031E-01      0.3259981567E+00
          0                 3           2            10   10     1       0.8897476274E-03      10   10    1         0.2311143016E-01      0.1167432808E+00
          0                 4           2            10   10     1       0.3998041157E-03      10   10    1         0.1038502730E-01      0.5004288043E-01
          0                 5           2            10   10     1       0.1796499941E-03      10   10    1         0.4666464678E-02      0.2225361484E-01
          0                 6           1            10   10     1       0.8072474361E-04      10   10    1         0.2096852315E-02      0.9954379137E-02
          0                 7           1            10   10     1       0.3627318268E-04      10   10    1         0.9422089515E-03      0.4456992164E-02
          0                 8           1            10   10     1       0.1629912042E-04      10   10    1         0.4233758957E-03      0.1995984474E-02
          0                 9           1            10   10     1       0.7323896635E-05      10   10    1         0.1902411907E-03      0.8939422479E-03

    ------------------------------------------------
       NWT REQUIRED            9 OUTER ITERATIONS 
       AND A TOTAL OF         14 INNER ITERATIONS.
    ------------------------------------------------

 NO OUTPUT CONTROL FOR STRESS PERIOD   16   TIME STEP   15
 
 SOLVING FOR HEAD 
                                                   Max.-Head-Change                         Max.-Flux-Residual
  Residual-Control   Outer-Iter.   Inner-Iter.     Column Row Layer    Maximum-Head-Change  Column Row Layer    Maximum-Flux-Residual          L2-NORM 
          0                 1           2             2    2     1       0.6116176225E-02       2    2    1         0.3185639867E+00      0.1360555001E+01
          0                 2           2            10   10     1       0.1978640483E-02       2    2    1         0.5541773266E-01      0.3257926879E+00
          0                 3           2            10   10     1       0.8890933059E-03      10   10    1         0.2309445342E-01      0.1166934806E+00
          0                 4           2            10   10     1       0.3995096895E-03      10   10    1         0.1037738820E-01      0.5002220051E-01
          0                 5           2            10   10     1       0.1795175115E-03      10   10    1         0.4663027307E-02      0.2224421967E-01
          0                 6           1            10   10     1       0.8066513114E-04      10   10    1         0.2095305613E-02      0.9950068558E-02
          0                 7           1            10   10     1       0.3624635952E-04      10   10    1         0.9415129931E-03      0.4455014111E-02
          0                 8           1            10   10     1       0.1628705131E-04      10   10    1         0.4230627438E-03      0.1995078911E-02
          0                 9           1            10   10     1       0.7318466224E-05      10   10    1         0.1901002862E-03      0.8935293779E-03

    ------------------------------------------------
       NWT REQUIRED            9 OUTER ITERATIONS 
       AND A TOTAL OF         14 INNER ITERATIONS.
    ------------------------------------------------

 NO OUTPUT CONTROL FOR STRESS PERIOD   16   TIME STEP   16
 
 SOLVING FOR HEAD 
                                                   Max.-Head-Change                         Max.-Flux-Residual
  Residual-Control   Outer-Iter.   Inner-Iter.     Column Row Layer    Maximum-Head-Change  Column Row Layer    Maximum-Flux-Residual          L2-NORM 
          0                 1           2             2    2     1       0.6095145989E-02       2    2    1         0.3174560619E+00      0.1358799663E+01
          0                 2           2            10   10     1       0.1977236230E-02       2    2    1         0.5522843732E-01      0.3256032581E+00
          0                 3           2            10   10     1       0.8884614329E-03      10   10    1         0.2307805898E-01      0.1166439990E+00
          0                 4           2            10   10     1       0.3992253673E-03      10   10    1         0.1037001118E-01      0.5000128467E-01
          0                 5           2            10   10     1       0.1793895764E-03      10   10    1         0.4659707889E-02      0.2223470307E-01
          0                 6           1            10   10     1       0.8060756558E-04      10   10    1         0.2093811996E-02      0.9945704380E-02
          0                 7           1            10   10     1       0.3622045727E-04      10   10    1         0.9408409213E-03      0.4453013771E-02
          0                 8           1            10   10     1       0.1627539664E-04      10   10    1         0.4227603396E-03      0.1994162351E-02
          0                 9           1            10   10     1       0.7313221896E-05      10   10    1         0.1899642160E-03      0.8931085982E-03

    ------------------------------------------------
       NWT REQUIRED            9 OUTER ITERATIONS 
       AND A TOTAL OF         14 INNER ITERATIONS.
    ------------------------------------------------

 NO OUTPUT CONTROL FOR STRESS PERIOD   16   TIME STEP   17
 
 SOLVING FOR HEAD 
                                                   Max.-Head-Change                         Max.-Flux-Residual
  Residual-Control   Outer-Iter.   Inner-Iter.     Column Row Layer    Maximum-Head-Change  Column Row Layer    Maximum-Flux-Residual          L2-NORM 
          0                 1           2             2    2     1       0.6074640564E-02       2    2    1         0.3163757672E+00      0.1356955700E+01
          0                 2           2            10   10     1       0.1975783176E-02       2    2    1         0.5504386766E-01      0.3253819777E+00
          0                 3           2            10   10     1       0.8878076584E-03      10   10    1         0.2306109507E-01      0.1165891732E+00
          0                 4           2            10   10     1       0.3989312157E-03      10   10    1         0.1036237860E-01      0.4997915130E-01
          0                 5           2            10   10     1       0.1792572302E-03      10   10    1         0.4656273783E-02      0.2222474841E-01
          0                 6           1            10   10     1       0.8054802015E-04      10   10    1         0.2092266910E-02      0.9941156148E-02
          0                 7           1            10   10     1       0.3619366687E-04      10   10    1         0.9401457575E-03      0.4450933440E-02
          0                 8           1            10   10     1       0.1626334304E-04      10   10    1         0.4224475742E-03      0.1993211786E-02
          0                 9           1            10   10     1       0.7307798988E-05      10   10    1         0.1898235004E-03      0.8926748459E-03

    ------------------------------------------------
       NWT REQUIRED            9 OUTER ITERATIONS 
       AND A TOTAL OF         14 INNER ITERATIONS.
    ------------------------------------------------

 NO OUTPUT CONTROL FOR STRESS PERIOD   16   TIME STEP   18
 
 SOLVING FOR HEAD 
                                                   Max.-Head-Change                         Max.-Flux-Residual
  Residual-Control   Outer-Iter.   Inner-Iter.     Column Row Layer    Maximum-Head-Change  Column Row Layer    Maximum-Flux-Residual          L2-NORM 
          0                 1           2             2    2     1       0.6054470705E-02       2    2    1         0.3153132211E+00      0.1355108204E+01
          0                 2           2            10   10     1       0.1974379837E-02       2    2    1         0.5486231146E-01      0.3251637752E+00
          0                 3           2            10   10     1       0.8871761618E-03      10   10    1         0.2304471114E-01      0.1165327885E+00
          0                 4           2            10   10     1       0.3986470468E-03      10   10    1         0.1035500591E-01      0.4995570306E-01
          0                 5           2            10   10     1       0.1791293577E-03      10   10    1         0.4652956136E-02      0.2221414779E-01
          0                 6           1            10   10     1       0.8049047960E-04      10   10    1         0.2090774009E-02      0.9936321105E-02
          0                 7           1            10   10     1       0.3616777463E-04      10   10    1         0.9394739723E-03      0.4448729315E-02
          0                 8           1            10   10     1       0.1625169211E-04      10   10    1         0.4221452808E-03      0.1992208427E-02
          0                 9           1            10   10     1       0.7302556160E-05      10   10    1         0.1896874714E-03      0.8922185190E-03

    ------------------------------------------------
       NWT REQUIRED            9 OUTER ITERATIONS 
       AND A TOTAL OF         14 INNER ITERATIONS.
    ------------------------------------------------

 NO OUTPUT CONTROL FOR STRESS PERIOD   16   TIME STEP   19
 
 SOLVING FOR HEAD 
                                                   Max.-Head-Change                         Max.-Flux-Residual
  Residual-Control   Outer-Iter.   Inner-Iter.     Column Row Layer    Maximum-Head-Change  Column Row Layer    Maximum-Flux-Residual          L2-NORM 
          0                 1           2             2    2     1       0.6034716587E-02       2    2    1         0.3142726108E+00      0.1353723874E+01
          0                 2           2            10   10     1       0.1972927763E-02       2    2    1         0.5468449402E-01      0.3249830709E+00
          0                 3           2            10   10     1       0.8865228432E-03      10   10    1         0.2302775875E-01      0.1164759904E+00
          0                 4           2            10   10     1       0.3983531070E-03      10   10    1         0.1034737868E-01      0.4993080329E-01
          0                 5           2            10   10     1       0.1789971097E-03      10   10    1         0.4649524513E-02      0.2220278152E-01
          0                 6           1            10   10     1       0.8043097968E-04      10   10    1         0.2089230071E-02      0.9931120925E-02
          0                 7           1            10   10     1       0.3614100499E-04      10   10    1         0.9387793347E-03      0.4446354652E-02
          0                 8           1            10   10     1       0.1623964802E-04      10   10    1         0.4218327561E-03      0.1991125967E-02
          0                 9           1            10   10     1       0.7297137755E-05      10   10    1         0.1895468692E-03      0.8917257987E-03

    ------------------------------------------------
       NWT REQUIRED            9 OUTER ITERATIONS 
       AND A TOTAL OF         14 INNER ITERATIONS.
    ------------------------------------------------

 NO OUTPUT CONTROL FOR STRESS PERIOD   16   TIME STEP   20
 
 SOLVING FOR HEAD 
                                                   Max.-Head-Change                         Max.-Flux-Residual
  Residual-Control   Outer-Iter.   Inner-Iter.     Column Row Layer    Maximum-Head-Change  Column Row Layer    Maximum-Flux-Residual          L2-NORM 
          0                 1           2             2    2     1       0.6015369323E-02       2    2    1         0.3132534267E+00      0.1352345124E+01
          0                 2           2            10   10     1       0.1971476200E-02       2    2    1         0.5451033953E-01      0.3247866731E+00
          0                 3           2            10   10     1       0.8858697115E-03      10   10    1         0.2301081212E-01      0.1164129293E+00
          0                 4           2            10   10     1       0.3980592323E-03      10   10    1         0.1033975355E-01      0.4990378798E-01
          0                 5           2            10   10     1       0.1788648822E-03      10   10    1         0.4646093602E-02      0.2219074225E-01
          0                 6           1            10   10     1       0.8037148452E-04      10   10    1         0.2087686348E-02      0.9925721454E-02
          0                 7           1            10   10     1       0.3611423586E-04      10   10    1         0.9380847518E-03      0.4443928284E-02
          0                 8           1            10   10     1       0.1622760367E-04      10   10    1         0.4215202364E-03      0.1990034476E-02
          0                 9           1            10   10     1       0.7291718349E-05      10   10    1         0.1894062522E-03      0.8912345567E-03

    ------------------------------------------------
       NWT REQUIRED            9 OUTER ITERATIONS 
       AND A TOTAL OF         14 INNER ITERATIONS.
    ------------------------------------------------

 NO OUTPUT CONTROL FOR STRESS PERIOD   16   TIME STEP   21
 
 SOLVING FOR HEAD 
                                                   Max.-Head-Change                         Max.-Flux-Residual
  Residual-Control   Outer-Iter.   Inner-Iter.     Column Row Layer    Maximum-Head-Change  Column Row Layer    Maximum-Flux-Residual          L2-NORM 
          0                 1           2             2    2     1       0.5996419571E-02       2    2    1         0.3122552382E+00      0.1350932347E+01
          0                 2           2            10   10     1       0.1970025193E-02       2    2    1         0.5433975767E-01      0.3245956494E+00
          0                 3           2            10   10     1       0.8852168376E-03      10   10    1         0.2299387201E-01      0.1163584906E+00
          0                 4           2            10   10     1       0.3977654764E-03      10   10    1         0.1033213143E-01      0.4988080860E-01
          0                 5           2            10   10     1       0.1787327096E-03      10   10    1         0.4642664089E-02      0.2218034058E-01
          0                 6           1            10   10     1       0.8031201537E-04      10   10    1         0.2086143279E-02      0.9920973611E-02
          0                 7           1            10   10     1       0.3608747898E-04      10   10    1         0.9373904711E-03      0.4441760905E-02
          0                 8           1            10   10     1       0.1621556482E-04      10   10    1         0.4212078547E-03      0.1989045969E-02
          0                 9           1            10   10     1       0.7286301694E-05      10   10    1         0.1892657033E-03      0.8907839783E-03

    ------------------------------------------------
       NWT REQUIRED            9 OUTER ITERATIONS 
       AND A TOTAL OF         14 INNER ITERATIONS.
    ------------------------------------------------

 NO OUTPUT CONTROL FOR STRESS PERIOD   16   TIME STEP   22
 
 SOLVING FOR HEAD 
                                                   Max.-Head-Change                         Max.-Flux-Residual
  Residual-Control   Outer-Iter.   Inner-Iter.     Column Row Layer    Maximum-Head-Change  Column Row Layer    Maximum-Flux-Residual          L2-NORM 
          0                 1           2             2    2     1       0.5977768864E-02       2    2    1         0.3112728653E+00      0.1349283271E+01
          0                 2           2            10   10     1       0.1968624042E-02       2    2    1         0.5417186143E-01      0.3243616851E+00
          0                 3           2            10   10     1       0.8845863530E-03      10   10    1         0.2297751376E-01      0.1162992722E+00
          0                 4           2            10   10     1       0.3974817757E-03      10   10    1         0.1032477062E-01      0.4985723265E-01
          0                 5           2            10   10     1       0.1786050529E-03      10   10    1         0.4639351930E-02      0.2216981011E-01
          0                 6           1            10   10     1       0.8025457436E-04      10   10    1         0.2084652911E-02      0.9916184313E-02
          0                 7           1            10   10     1       0.3606163225E-04      10   10    1         0.9367198548E-03      0.4439578790E-02
          0                 8           1            10   10     1       0.1620393516E-04      10   10    1         0.4209061069E-03      0.1988052270E-02
          0                 9           1            10   10     1       0.7281069121E-05      10   10    1         0.1891299301E-03      0.8903905540E-03

    ------------------------------------------------
       NWT REQUIRED            9 OUTER ITERATIONS 
       AND A TOTAL OF         14 INNER ITERATIONS.
    ------------------------------------------------

 NO OUTPUT CONTROL FOR STRESS PERIOD   16   TIME STEP   23
 
 SOLVING FOR HEAD 
                                                   Max.-Head-Change                         Max.-Flux-Residual
  Residual-Control   Outer-Iter.   Inner-Iter.     Column Row Layer    Maximum-Head-Change  Column Row Layer    Maximum-Flux-Residual          L2-NORM 
          0                 1           2             2    2     1       0.5959587980E-02       2    2    1         0.3103152024E+00      0.1347708439E+01
          0                 2           2            10   10     1       0.1967174234E-02       2    2    1         0.5400819826E-01      0.3241446087E+00
          0                 3           2            10   10     1       0.8839340819E-03      10   10    1         0.2296058796E-01      0.1162430335E+00
          0                 4           2            10   10     1       0.3971883191E-03      10   10    1         0.1031715567E-01      0.4983412474E-01
          0                 5           2            10   10     1       0.1784730283E-03      10   10    1         0.4635925978E-02      0.2215940262E-01
          0                 6           1            10   10     1       0.8019517724E-04      10   10    1         0.2083111588E-02      0.9911441025E-02
          0                 7           1            10   10     1       0.3603491014E-04      10   10    1         0.9360264251E-03      0.4437416350E-02
          0                 8           1            10   10     1       0.1619191307E-04      10   10    1         0.4205941378E-03      0.1987068163E-02
          0                 9           1            10   10     1       0.7275660469E-05      10   10    1         0.1889895767E-03      0.8898833828E-03

    ------------------------------------------------
       NWT REQUIRED            9 OUTER ITERATIONS 
       AND A TOTAL OF         14 INNER ITERATIONS.
    ------------------------------------------------

 NO OUTPUT CONTROL FOR STRESS PERIOD   16   TIME STEP   24
 
 SOLVING FOR HEAD 
                                                   Max.-Head-Change                         Max.-Flux-Residual
  Residual-Control   Outer-Iter.   Inner-Iter.     Column Row Layer    Maximum-Head-Change  Column Row Layer    Maximum-Flux-Residual          L2-NORM 
          0                 1           2             2    2     1       0.5941689220E-02       2    2    1         0.3093724827E+00      0.1346291000E+01
          0                 2           2            10   10     1       0.1965725038E-02       2    2    1         0.5384706650E-01      0.3239251877E+00
          0                 3           2            10   10     1       0.8832820439E-03      10   10    1         0.2294366910E-01      0.1161807929E+00
          0                 4           2            10   10     1       0.3968949491E-03      10   10    1         0.1030954336E-01      0.4980882355E-01
          0                 5           2            10   10     1       0.1783410337E-03      10   10    1         0.4632500992E-02      0.2214815877E-01
          0                 6           1            10   10     1       0.8013579038E-04      10   10    1         0.2081570607E-02      0.9906357558E-02
          0                 7           1            10   10     1       0.3600819078E-04      10   10    1         0.9353331030E-03      0.4435109087E-02
          0                 8           1            10   10     1       0.1617989174E-04      10   10    1         0.4202821990E-03      0.1986019248E-02
          0                 9           1            10   10     1       0.7270251818E-05      10   10    1         0.1888492309E-03      0.8894080381E-03

    ------------------------------------------------
       NWT REQUIRED            9 OUTER ITERATIONS 
       AND A TOTAL OF         14 INNER ITERATIONS.
    ------------------------------------------------

 NO OUTPUT CONTROL FOR STRESS PERIOD   16   TIME STEP   25
 
 SOLVING FOR HEAD 
                                                   Max.-Head-Change                         Max.-Flux-Residual
  Residual-Control   Outer-Iter.   Inner-Iter.     Column Row Layer    Maximum-Head-Change  Column Row Layer    Maximum-Flux-Residual          L2-NORM 
          0                 1           2             2    2     1       0.5924154197E-02       2    2    1         0.3084489306E+00      0.1345120320E+01
          0                 2           2            10   10     1       0.1964276500E-02       2    2    1         0.5368920827E-01      0.3237450820E+00
          0                 3           2            10   10     1       0.8826303085E-03      10   10    1         0.2292675795E-01      0.1161231349E+00
          0                 4           2            10   10     1       0.3966017187E-03      10   10    1         0.1030193461E-01      0.4978392272E-01
          0                 5           2            10   10     1       0.1782091036E-03      10   10    1         0.4629077639E-02      0.2213689720E-01
          0                 6           1            10   10     1       0.8007643227E-04      10   10    1         0.2080030371E-02      0.9901240562E-02
          0                 7           1            10   10     1       0.3598148492E-04      10   10    1         0.9346401285E-03      0.4432785122E-02
          0                 8           1            10   10     1       0.1616787640E-04      10   10    1         0.4199704227E-03      0.1984964595E-02
          0                 9           1            10   10     1       0.7264846168E-05      10   10    1         0.1887089630E-03      0.8889292942E-03

    ------------------------------------------------
       NWT REQUIRED            9 OUTER ITERATIONS 
       AND A TOTAL OF         14 INNER ITERATIONS.
    ------------------------------------------------

 NO OUTPUT CONTROL FOR STRESS PERIOD   16   TIME STEP   26
 
 SOLVING FOR HEAD 
                                                   Max.-Head-Change                         Max.-Flux-Residual
  Residual-Control   Outer-Iter.   Inner-Iter.     Column Row Layer    Maximum-Head-Change  Column Row Layer    Maximum-Flux-Residual          L2-NORM 
          0                 1           2             2    2     1       0.5906885496E-02       2    2    1         0.3075394699E+00      0.1344036479E+01
          0                 2           2            10   10     1       0.1962828645E-02       2    2    1         0.5353374113E-01      0.3235573834E+00
          0                 3           2            10   10     1       0.8819788870E-03      10   10    1         0.2290985480E-01      0.1160631875E+00
          0                 4           2            10   10     1       0.3963086318E-03      10   10    1         0.1029432952E-01      0.4975836985E-01
          0                 5           2            10   10     1       0.1780772390E-03      10   10    1         0.4625655977E-02      0.2212532413E-01
          0                 6           1            10   10     1       0.8001710493E-04      10   10    1         0.2078490916E-02      0.9895956424E-02
          0                 7           1            10   10     1       0.3595479307E-04      10   10    1         0.9339475103E-03      0.4430374435E-02
          0                 8           1            10   10     1       0.1615586757E-04      10   10    1         0.4196588073E-03      0.1983866830E-02
          0                 9           1            10   10     1       0.7259443269E-05      10   10    1         0.1885687621E-03      0.8884302642E-03

    ------------------------------------------------
       NWT REQUIRED            9 OUTER ITERATIONS 
       AND A TOTAL OF         14 INNER ITERATIONS.
    ------------------------------------------------

 NO OUTPUT CONTROL FOR STRESS PERIOD   16   TIME STEP   27
 
 SOLVING FOR HEAD 
                                                   Max.-Head-Change                         Max.-Flux-Residual
  Residual-Control   Outer-Iter.   Inner-Iter.     Column Row Layer    Maximum-Head-Change  Column Row Layer    Maximum-Flux-Residual          L2-NORM 
          0                 1           2             2    2     1       0.5890054827E-02       2    2    1         0.3066530586E+00      0.1342784028E+01
          0                 2           2            10   10     1       0.1961381494E-02       2    2    1         0.5338221950E-01      0.3233411735E+00
          0                 3           2            10   10     1       0.8813277885E-03      10   10    1         0.2289295991E-01      0.1159937409E+00
          0                 4           2            10   10     1       0.3960156930E-03      10   10    1         0.1028672823E-01      0.4972908737E-01
          0                 5           2            10   10     1       0.1779454423E-03      10   10    1         0.4622236042E-02      0.2211234614E-01
          0                 6           1            10   10     1       0.7995780811E-04      10   10    1         0.2076952242E-02      0.9890155233E-02
          0                 7           1            10   10     1       0.3592811472E-04      10   10    1         0.9332552439E-03      0.4427775058E-02
          0                 8           1            10   10     1       0.1614386474E-04      10   10    1         0.4193473503E-03      0.1982707986E-02
          0                 9           1            10   10     1       0.7254043122E-05      10   10    1         0.1884286369E-03      0.8879243518E-03

    ------------------------------------------------
       NWT REQUIRED            9 OUTER ITERATIONS 
       AND A TOTAL OF         14 INNER ITERATIONS.
    ------------------------------------------------

 NO OUTPUT CONTROL FOR STRESS PERIOD   16   TIME STEP   28
 
 SOLVING FOR HEAD 
                                                   Max.-Head-Change                         Max.-Flux-Residual
  Residual-Control   Outer-Iter.   Inner-Iter.     Column Row Layer    Maximum-Head-Change  Column Row Layer    Maximum-Flux-Residual          L2-NORM 
          0                 1           2             2    2     1       0.7941499657E-02       2    2    1         0.4140044477E+00      0.1645627538E+01
          0                 2           2            10   10     1       0.1959934880E-02       2    2    1         0.7191989659E-01      0.3458036679E+00
          0                 3           2            10   10     1       0.8806768950E-03      10   10    1         0.2287607109E-01      0.1174103260E+00
          0                 4           2            10   10     1       0.3957228312E-03      10   10    1         0.1027912924E-01      0.4983423698E-01
          0                 5           2            10   10     1       0.1778136743E-03      10   10    1         0.4618816981E-02      0.2212604086E-01
          0                 6           1            10   10     1       0.7989852203E-04      10   10    1         0.2075413898E-02      0.9893887036E-02
          0                 7           1            10   10     1       0.3590144038E-04      10   10    1         0.9325631007E-03      0.4429189018E-02
          0                 8           1            10   10     1       0.1613186391E-04      10   10    1         0.4190359419E-03      0.1983275390E-02
          0                 9           1            10   10     1       0.7248643725E-05      10   10    1         0.1882885245E-03      0.8881420914E-03

    ------------------------------------------------
       NWT REQUIRED            9 OUTER ITERATIONS 
       AND A TOTAL OF         14 INNER ITERATIONS.
    ------------------------------------------------

 NO OUTPUT CONTROL FOR STRESS PERIOD   16   TIME STEP   29
 
 SOLVING FOR HEAD 
                                                   Max.-Head-Change                         Max.-Flux-Residual
  Residual-Control   Outer-Iter.   Inner-Iter.     Column Row Layer    Maximum-Head-Change  Column Row Layer    Maximum-Flux-Residual          L2-NORM 
          0                 1           2             2   13     1       0.2856008571E-01       4   13    1         0.1629305268E+01      0.3477402866E+01
          0                 2           2             4   13     1      -0.2757945647E-02       4   13    1        -0.1610652522E+00      0.4801755771E+00
          0                 3           2            10   10     1       0.8800043101E-03      10   10    1         0.2285861682E-01      0.1241866841E+00
          0                 4           2            10   10     1       0.3954202676E-03      10   10    1         0.1027127728E-01      0.5028625841E-01
          0                 5           2            10   10     1       0.1776775678E-03      10   10    1         0.4615284774E-02      0.2219967400E-01
          0                 6           1            10   10     1       0.7983729685E-04      10   10    1         0.2073824970E-02      0.9918418953E-02
          0                 7           1            10   10     1       0.3587389990E-04      10   10    1         0.9318483500E-03      0.4439350776E-02
          0                 8           1            10   10     1       0.1611947541E-04      10   10    1         0.4187144299E-03      0.1987656800E-02
          0                 9           1            10   10     1       0.7243071251E-05      10   10    1         0.1881439067E-03      0.8900440972E-03

    ------------------------------------------------
       NWT REQUIRED            9 OUTER ITERATIONS 
       AND A TOTAL OF         14 INNER ITERATIONS.
    ------------------------------------------------

 NO OUTPUT CONTROL FOR STRESS PERIOD   16   TIME STEP   30



 STREAM LISTING     PERIOD     16   STEP       30

 LAYER ROW COL. STREAM  RCH.  FLOW INTO     FLOW TO   FLOW OUT OF   OVRLND.     DIRECT     STREAM       STREAM     STREAM     STREAM   STREAMBED  STREAMBED
                SEG.NO.  NO.  STRM. RCH.    AQUIFER    STRM. RCH.    RUNOFF     PRECIP       ET          HEAD       DEPTH      WIDTH   CONDCTNC.   GRADIENT

   1    1    1     1     1    9.8000E+01  4.7086E-01   9.7529E+01  0.000E+00  0.000E+00  0.000E+00  1.09484E+03  1.792E+00  2.184E+01  9.826E-02  1.597E+00
   1    2    2     1     2    9.7529E+01  7.3062E-01   9.6799E+01  0.000E+00  0.000E+00  0.000E+00  1.08985E+03  1.790E+00  2.179E+01  1.525E-01  1.597E+00
   1    3    3     1     3    9.6799E+01  6.2447E-01   9.6174E+01  0.000E+00  0.000E+00  0.000E+00  1.08421E+03  1.787E+00  2.174E+01  1.304E-01  1.596E+00
   1    3    4     1     4    9.6174E+01  5.7618E-01   9.5598E+01  0.000E+00  0.000E+00  0.000E+00  1.07919E+03  1.785E+00  2.170E+01  1.204E-01  1.595E+00
   1    4    5     2     1    9.3598E+01  4.4167E-01   9.3156E+01  0.000E+00  0.000E+00  0.000E+00  1.07460E+03  2.662E+00  1.200E+01  7.800E-02  1.887E+00
   1    5    6     2     2    9.3156E+01  3.3935E-01   9.2817E+01  0.000E+00  0.000E+00  0.000E+00  1.06917E+03  2.656E+00  1.200E+01  6.000E-02  1.885E+00
   1    6    6     2     3    9.2817E+01  3.3900E-01   9.2478E+01  0.000E+00  0.000E+00  0.000E+00  1.06444E+03  2.650E+00  1.200E+01  6.000E-02  1.883E+00
   1    7    6     2     4    9.2478E+01  3.3865E-01   9.2139E+01  0.000E+00  0.000E+00  0.000E+00  1.05972E+03  2.644E+00  1.200E+01  6.000E-02  1.881E+00
   1    8    6     2     5    9.2139E+01  3.3830E-01   9.1801E+01  0.000E+00  0.000E+00  0.000E+00  1.05500E+03  2.638E+00  1.200E+01  6.000E-02  1.879E+00
   1    3    5     3     1    2.0000E+00  2.8252E-01   1.7175E+00  0.000E+00  0.000E+00  0.000E+00  1.07555E+03  1.909E+00  9.636E+00  7.227E-02  1.955E+00
   1    3    6     3     2    1.7175E+00  2.4905E-01   1.4684E+00  0.000E+00  0.000E+00  0.000E+00  1.07264E+03  1.727E+00  8.909E+00  6.682E-02  1.864E+00
   1    3    7     3     3    1.4684E+00  1.9718E-01   1.2712E+00  0.000E+00  0.000E+00  0.000E+00  1.06987E+03  1.555E+00  8.218E+00  5.547E-02  1.777E+00
   1    4    8     3     4    1.2712E+00  2.2567E-01   1.0456E+00  0.000E+00  0.000E+00  0.000E+00  1.06682E+03  1.364E+00  7.455E+00  6.709E-02  1.682E+00
   1    5    8     3     5    1.0456E+00  1.5790E-01   8.8768E-01  0.000E+00  0.000E+00  0.000E+00  1.06362E+03  1.164E+00  6.655E+00  4.991E-02  1.582E+00
   1    6    8     3     6    8.8768E-01  5.5980E-02   8.3170E-01  0.000E+00  0.000E+00  0.000E+00  1.06158E+03  1.036E+00  6.145E+00  1.844E-02  1.518E+00
   1    5   10     4     1    1.0000E+01  9.0919E-02   9.9091E+00  0.000E+00  0.000E+00  0.000E+00  1.07836E+03  6.368E-01  1.000E+01  2.500E-02  1.212E+00
   1    5    9     4     2    9.9091E+00  1.8158E-01   9.7275E+00  0.000E+00  0.000E+00  0.000E+00  1.07154E+03  6.315E-01  1.000E+01  5.000E-02  1.211E+00
   1    6    8     4     3    9.7275E+00  1.2689E-01   9.6006E+00  0.000E+00  0.000E+00  0.000E+00  1.06381E+03  6.256E-01  1.000E+01  3.500E-02  1.209E+00
   1    6    8     5     1    1.0432E+01  2.2686E-01   1.0205E+01  0.000E+00  0.000E+00  0.000E+00  1.05868E+03  6.790E-01  1.542E+01  6.166E-02  1.226E+00
   1    7    7     5     2    1.0205E+01  2.7894E-01   9.9265E+00  0.000E+00  0.000E+00  0.000E+00  1.05417E+03  6.732E-01  1.519E+01  7.594E-02  1.224E+00
   1    8    7     5     3    9.9265E+00  1.9221E-01   9.7343E+00  0.000E+00  0.000E+00  0.000E+00  1.04992E+03  6.676E-01  1.497E+01  5.241E-02  1.223E+00
   1    8    6     5     4    9.7343E+00  1.3577E-01   9.5985E+00  0.000E+00  0.000E+00  0.000E+00  1.04691E+03  6.637E-01  1.482E+01  3.706E-02  1.221E+00
   1    9    6     6     1    1.0140E+02  3.4955E-01   1.0105E+02  0.000E+00  0.000E+00  0.000E+00  1.04555E+03  2.826E+00  1.200E+01  6.000E-02  1.942E+00
   1   10    7     6     2    1.0105E+02  3.4920E-01   1.0070E+02  0.000E+00  0.000E+00  0.000E+00  1.04100E+03  2.820E+00  1.200E+01  6.000E-02  1.940E+00
   1   11    7     6     3    1.0070E+02  3.4885E-01   1.0035E+02  0.000E+00  0.000E+00  0.000E+00  1.03645E+03  2.814E+00  1.200E+01  6.000E-02  1.938E+00
   1   12    7     6     4    1.0035E+02  3.4849E-01   1.0000E+02  0.000E+00  0.000E+00  0.000E+00  1.03190E+03  2.808E+00  1.200E+01  6.000E-02  1.936E+00
   1   13    7     6     5    1.0000E+02  2.7857E-02   9.9975E+01  0.000E+00  0.000E+00  0.000E+00  1.02871E+03  2.805E+00  1.200E+01  2.400E-02  3.869E-01
   1   14    9     7     1    1.5000E+02  1.1600E+00   1.4884E+02  0.000E+00  0.000E+00  0.000E+00  1.03987E+03  2.288E+00  5.530E+01  5.593E-01  6.913E-01
   1   13    8     7     2    1.4884E+02  1.5866E+00   1.4725E+02  0.000E+00  0.000E+00  0.000E+00  1.03478E+03  2.281E+00  5.526E+01  6.149E-01  8.601E-01
   1   13    7     7     3    1.4725E+02  1.1951E+00   1.4606E+02  0.000E+00  0.000E+00  0.000E+00  1.02969E+03  2.273E+00  5.523E+01  5.586E-01  7.131E-01
   1   13    6     8     1    2.4603E+02  9.6989E-01   2.4506E+02  0.000E+00  0.000E+00  0.000E+00  1.02526E+03  3.389E+00  4.914E+01  5.007E-01  6.457E-01
   1   13    5     8     2    2.4506E+02  1.6753E-01   2.4490E+02  0.000E+00  0.000E+00  0.000E+00  1.01901E+03  3.386E+00  4.909E+01  5.003E-01  1.116E-01
   1   13    4     8     3    2.4490E+02 -1.8806E+00   2.4678E+02  0.000E+00  0.000E+00  0.000E+00  1.01277E+03  3.390E+00  4.916E+01  5.009E+00 -1.251E-01
   1   13    3     8     4    2.4678E+02 -2.9117E+00   2.4969E+02  0.000E+00  0.000E+00  0.000E+00  1.00653E+03  3.403E+00  4.934E+01  5.028E+00 -1.930E-01
   1   13    2     8     5    2.4969E+02 -1.3094E+00   2.5100E+02  0.000E+00  0.000E+00  0.000E+00  1.00029E+03  3.413E+00  4.949E+01  5.044E+00 -8.654E-02
   1   13    1     8     6    2.5100E+02 -1.1779E+00   2.5218E+02  0.000E+00  0.000E+00  0.000E+00  9.95295E+02  3.420E+00  4.959E+01  3.032E+00 -1.295E-01
   1    6    8     9     1    0.0000E+00  0.0000E+00   0.0000E+00  0.000E+00  0.000E+00  0.000E+00  1.07850E+03  0.000E+00  4.000E+00  0.000E+00  1.000E+00





UNSATURATED ZONE PACKAGE VOLUMETRIC BUDGET FOR  TIME STEP    30 STRESS PERIOD   16
  ------------------------------------------------------------------------------



     CUMULATIVE VOLUMES      L**3       RATES FOR THIS TIME STEP      L**3/T
     ------------------                 ------------------------

           IN:                                      IN:
           ---                                      ---
        INFILTRATION =    26615969.2213          INFILTRATION =       0.0000E+00

          OUT:                                     OUT:
          ----                                     ----
              UZF ET =   553807316.0008                UZF ET =       0.0000E+00
        UZF RECHARGE =   936938803.3888          UZF RECHARGE =          21.5606

            IN - OUT = -1464130150.1684              IN - OUT =         -21.5606

          STORAGE:                                 STORAGE:
          --------                                 --------
      STORAGE CHANGE = -1464104680.9134        STORAGE CHANGE =         -21.5606

 PERCENT DISCREPANCY IS DIFFERENCE BETWEEN IN-OUT MINUS CHANGE IN STORAGE
 DIVIDED BY THE AVERAGE OF IN AND OUT TIMES 100

 PERCENT DISCREPANCY =          -0.00     PERCENT DISCREPANCY =           0.00






1
  VOLUMETRIC BUDGET FOR ENTIRE MODEL AT END OF TIME STEP   30, STRESS PERIOD  16
  ------------------------------------------------------------------------------

     CUMULATIVE VOLUMES      L**3       RATES FOR THIS TIME STEP      L**3/T
     ------------------                 ------------------------

           IN:                                      IN:
           ---                                      ---
             STORAGE     =    31944326.0000               STORAGE     =       2.7802E-02
       CONSTANT HEAD     =           0.0000         CONSTANT HEAD     =           0.0000
               WELLS     =           0.0000                 WELLS     =           0.0000
     HEAD DEP BOUNDS     =    10883596.0000       HEAD DEP BOUNDS     =           0.2738
      STREAM LEAKAGE     =   434840448.0000        STREAM LEAKAGE     =          13.1035
        UZF RECHARGE     =   936939392.0000          UZF RECHARGE     =          21.5606
               GW ET     =           0.0000                 GW ET     =           0.0000
     SURFACE LEAKAGE     =           0.0000       SURFACE LEAKAGE     =           0.0000
    SUPPLEMENTARY WELLS  =           0.0000      SUPPLEMENTARY WELLS  =           0.0000

                TOTAL IN =  1414607744.0000                  TOTAL IN =          34.9658

          OUT:                                     OUT:
          ----                                     ----
             STORAGE     =   887754496.0000               STORAGE     =          27.2165
       CONSTANT HEAD     =           0.0000         CONSTANT HEAD     =           0.0000
               WELLS     =           0.0000                 WELLS     =           0.0000
     HEAD DEP BOUNDS     =    11382975.0000       HEAD DEP BOUNDS     =           0.2920
      STREAM LEAKAGE     =   430956896.0000        STREAM LEAKAGE     =           7.2796
        UZF RECHARGE     =           0.0000          UZF RECHARGE     =           0.0000
               GW ET     =    84331000.0000                 GW ET     =           0.1750
     SURFACE LEAKAGE     =           0.0000       SURFACE LEAKAGE     =           0.0000
    SUPPLEMENTARY WELLS  =       36404.7930      SUPPLEMENTARY WELLS  =           0.0000

               TOTAL OUT =  1414461696.0000                 TOTAL OUT =          34.9630

                IN - OUT =      146048.0000                  IN - OUT =       2.7313E-03

     PERCENT DISCREPANCY =           0.01         PERCENT DISCREPANCY =           0.01






         TIME SUMMARY AT END OF TIME STEP   30 IN STRESS PERIOD   16
                    SECONDS     MINUTES      HOURS       DAYS        YEARS
                    -----------------------------------------------------------
   TIME STEP LENGTH  87600.      1460.0      24.333      1.0139     2.77588E-03
 STRESS PERIOD TIME 2.62800E+06  43800.      730.00      30.417     8.32763E-02
         TOTAL TIME 3.95064E+07 6.58440E+05  10974.      457.25      1.2519    
1
1
                            STRESS PERIOD NO.   17, LENGTH =   2628000.    
                            -----------------------------------------------

                              NUMBER OF TIME STEPS =    30

                               MULTIPLIER FOR DELT =     1.000

                            INITIAL TIME STEP SIZE =   87600.00    

 WELL NO.  LAYER   ROW   COL   STRESS RATE         
 --------------------------------------------------
      1      1      6      4       0.000    
      2      1      6      7       0.000    
      3      1      7      4       0.000    
      4      1      7      5       0.000    
      5      1      8      4       0.000    
      6      1      8      5       0.000    
      7      1      9      4       0.000    
      8      1      9      5       0.000    
      9      1     10      4       0.000    
     10      1     10      5       0.000    

     10 WELLS

 REUSING NON-PARAMETER GHB CELLS FROM LAST STRESS PERIOD

      2 GHB CELLS

 REUSING STREAM SEGMENT DATA FROM LAST STRESS PERIOD



            AREAL INFILTRATION RATE
 READING ON UNIT   19 WITH FORMAT: (10F4.0)            

            1           2           3           4           5           6           7           8           9          10
 ........................................................................................................................
   1    0.000       0.000       0.000       0.000       0.000       0.000       0.000       0.000       0.000       0.000    
   2    0.000       0.000       0.000       0.000       0.000       0.000       0.000       0.000       0.000       0.000    
   3    0.000       0.000       0.000       0.000       0.000       0.000       0.000       0.000       0.000       0.000    
   4    0.000       0.000       0.000       0.000       0.000       0.000       0.000       0.000       0.000       0.000    
   5    0.000       0.000       0.000       0.000       0.000       0.000       0.000       0.000       0.000       0.000    
   6    0.000       0.000       0.000       0.000       0.000       0.000       0.000       0.000       0.000       0.000    
   7    0.000       0.000       0.000       0.000       0.000       0.000       0.000       0.000       0.000       0.000    
   8    0.000       0.000       0.000       0.000       0.000       0.000       0.000       0.000       0.000       0.000    
   9    0.000       0.000       0.000       0.000       0.000       0.000       0.000       0.000       0.000       0.000    
  10    0.000       0.000       0.000       0.000       0.000       0.000       0.000       0.000       0.000       0.000    
  11    0.000       0.000       0.000       0.000       0.000       0.000       0.000       0.000       0.000       0.000    
  12    0.000       0.000       0.000       0.000       0.000       0.000       0.000       0.000       0.000       0.000    
  13    0.000       0.000       0.000       0.000       0.000       0.000       0.000       0.000       0.000       0.000    
  14    0.000       0.000       0.000       0.000       0.000       0.000       0.000       0.000       0.000       0.000    
  15    0.000       0.000       0.000       0.000       0.000       0.000       0.000       0.000       0.000       0.000    

                  ET RATE =  5.000000E-09

 USING ET EXTINCTION DEPTH FROM PREVIOUS STRESS PERIOD. CURRENT PERIOD IS:      17

 USING EXTINCTION WATER CONTENT FROM PREVIOUS STRESS PERIOD. CURRENT PERIOD IS:      17

 PROCESSING AGO STRESS PERIOD DATA

 READING AGO STRESS PERIOD DATA

 READING IRRIGATION STREAM

 READING IRRIGATION WELL

 READING SUPPLEMENTAL WEL

 END PROCESSING AGO STRESS PERIOD DATA OPTIONS
 
 SOLVING FOR HEAD 
                                                   Max.-Head-Change                         Max.-Flux-Residual
  Residual-Control   Outer-Iter.   Inner-Iter.     Column Row Layer    Maximum-Head-Change  Column Row Layer    Maximum-Flux-Residual          L2-NORM 
          0                 1           2             2   13     1       0.2445234703E-01       2   13    1         0.1390215573E+01      0.3086704673E+01
          0                 2           2             4   13     1      -0.2315419598E-02       4   13    1        -0.1352922920E+00      0.4542502181E+00
          0                 3           2            10   10     1       0.8793543573E-03      10   10    1         0.2284175051E-01      0.1235573675E+00
          0                 4           2            10   10     1       0.3951278716E-03      10   10    1         0.1026368948E-01      0.5034880319E-01
          0                 5           2            10   10     1       0.1775460287E-03      10   10    1         0.4611871232E-02      0.2223313533E-01
          0                 6           1            10   10     1       0.7977812258E-04      10   10    1         0.2072289335E-02      0.9932918454E-02
          0                 7           1            10   10     1       0.3584728034E-04      10   10    1         0.9311575328E-03      0.4445563269E-02
          0                 8           1            10   10     1       0.1610750085E-04      10   10    1         0.4184036639E-03      0.1990316476E-02
          0                 9           1            10   10     1       0.7237684359E-05      10   10    1         0.1880041086E-03      0.8911869912E-03

    ------------------------------------------------
       NWT REQUIRED            9 OUTER ITERATIONS 
       AND A TOTAL OF         14 INNER ITERATIONS.
    ------------------------------------------------

 NO OUTPUT CONTROL FOR STRESS PERIOD   17   TIME STEP    1
 
 SOLVING FOR HEAD 
                                                   Max.-Head-Change                         Max.-Flux-Residual
  Residual-Control   Outer-Iter.   Inner-Iter.     Column Row Layer    Maximum-Head-Change  Column Row Layer    Maximum-Flux-Residual          L2-NORM 
          0                 1           2             2   13     1       0.2244159730E-01       2   13    1         0.1275762066E+01      0.2922856324E+01
          0                 2           2             2    2     1       0.2246106663E-02       4   13    1        -0.1219373895E+00      0.4438132501E+00
          0                 3           2            10   10     1       0.8787048425E-03      10   10    1         0.2282489520E-01      0.1233810232E+00
          0                 4           2            10   10     1       0.3948356789E-03      10   10    1         0.1025610681E-01      0.5041838577E-01
          0                 5           2            10   10     1       0.1774145846E-03      10   10    1         0.4608460087E-02      0.2226698989E-01
          0                 6           1            10   10     1       0.7971899258E-04      10   10    1         0.2070754814E-02      0.9947667614E-02
          0                 7           1            10   10     1       0.3582068128E-04      10   10    1         0.9304672325E-03      0.4451936125E-02
          0                 8           1            10   10     1       0.1609553528E-04      10   10    1         0.4180931372E-03      0.1993069421E-02
          0                 9           1            10   10     1       0.7232302219E-05      10   10    1         0.1878644264E-03      0.8923730209E-03

    ------------------------------------------------
       NWT REQUIRED            9 OUTER ITERATIONS 
       AND A TOTAL OF         14 INNER ITERATIONS.
    ------------------------------------------------

 NO OUTPUT CONTROL FOR STRESS PERIOD   17   TIME STEP    2
 
 SOLVING FOR HEAD 
                                                   Max.-Head-Change                         Max.-Flux-Residual
  Residual-Control   Outer-Iter.   Inner-Iter.     Column Row Layer    Maximum-Head-Change  Column Row Layer    Maximum-Flux-Residual          L2-NORM 
          0                 1           2             2   13     1       0.2059755326E-01       2   13    1         0.1170802709E+01      0.2778782185E+01
          0                 2           2             2    2     1       0.2231285588E-02       2    2    1         0.1163687005E+00      0.4349249344E+00
          0                 3           2            10   10     1       0.8780556517E-03      10   10    1         0.2280804901E-01      0.1232614593E+00
          0                 4           2            10   10     1       0.3945436177E-03      10   10    1         0.1024852786E-01      0.5049115431E-01
          0                 5           2            10   10     1       0.1772831925E-03      10   10    1         0.4605050441E-02      0.2230178513E-01
          0                 6           1            10   10     1       0.7965988333E-04      10   10    1         0.2069220896E-02      0.9962818730E-02
          0                 7           1            10   10     1       0.3579408972E-04      10   10    1         0.9297771658E-03      0.4458485641E-02
          0                 8           1            10   10     1       0.1608357322E-04      10   10    1         0.4177827057E-03      0.1995900597E-02
          0                 9           1            10   10     1       0.7226921080E-05      10   10    1         0.1877247760E-03      0.8935987092E-03

    ------------------------------------------------
       NWT REQUIRED            9 OUTER ITERATIONS 
       AND A TOTAL OF         14 INNER ITERATIONS.
    ------------------------------------------------

 NO OUTPUT CONTROL FOR STRESS PERIOD   17   TIME STEP    3
 
 SOLVING FOR HEAD 
                                                   Max.-Head-Change                         Max.-Flux-Residual
  Residual-Control   Outer-Iter.   Inner-Iter.     Column Row Layer    Maximum-Head-Change  Column Row Layer    Maximum-Flux-Residual          L2-NORM 
          0                 1           2             2   13     1       0.1890669272E-01       2   13    1         0.1074561122E+01      0.2652308385E+01
          0                 2           2             2    2     1       0.2216766893E-02       2    2    1         0.1156025015E+00      0.4273433882E+00
          0                 3           2            10   10     1       0.8773848649E-03      10   10    1         0.2279064004E-01      0.1231830379E+00
          0                 4           2            10   10     1       0.3942418907E-03      10   10    1         0.1024069703E-01      0.5056395287E-01
          0                 5           2            10   10     1       0.1771474740E-03      10   10    1         0.4601528053E-02      0.2233605100E-01
          0                 6           1            10   10     1       0.7959883723E-04      10   10    1         0.2067636513E-02      0.9977663154E-02
          0                 7           1            10   10     1       0.3576663203E-04      10   10    1         0.9290645173E-03      0.4464879282E-02
          0                 8           1            10   10     1       0.1607122274E-04      10   10    1         0.4174621577E-03      0.1998655268E-02
          0                 9           1            10   10     1       0.7221366364E-05      10   10    1         0.1875805995E-03      0.8947864244E-03

    ------------------------------------------------
       NWT REQUIRED            9 OUTER ITERATIONS 
       AND A TOTAL OF         14 INNER ITERATIONS.
    ------------------------------------------------

 NO OUTPUT CONTROL FOR STRESS PERIOD   17   TIME STEP    4
 
 SOLVING FOR HEAD 
                                                   Max.-Head-Change                         Max.-Flux-Residual
  Residual-Control   Outer-Iter.   Inner-Iter.     Column Row Layer    Maximum-Head-Change  Column Row Layer    Maximum-Flux-Residual          L2-NORM 
          0                 1           2             2   13     1       0.1735621972E-01       2   13    1         0.9863149519E+00      0.2541311352E+01
          0                 2           2             2    2     1       0.2202513353E-02       2    2    1         0.1148503386E+00      0.4208198904E+00
          0                 3           2            10   10     1       0.8767366794E-03      10   10    1         0.2277381932E-01      0.1231170684E+00
          0                 4           2            10   10     1       0.3939502940E-03      10   10    1         0.1023312988E-01      0.5062849196E-01
          0                 5           2            10   10     1       0.1770162968E-03      10   10    1         0.4598123863E-02      0.2236682538E-01
          0                 6           1            10   10     1       0.7953982628E-04      10   10    1         0.2066105106E-02      0.9991126381E-02
          0                 7           1            10   10     1       0.3574008599E-04      10   10    1         0.9283756100E-03      0.4470722242E-02
          0                 8           1            10   10     1       0.1605928119E-04      10   10    1         0.4171522536E-03      0.2001190132E-02
          0                 9           1            10   10     1       0.7215994479E-05      10   10    1         0.1874411895E-03      0.8958864700E-03

    ------------------------------------------------
       NWT REQUIRED            9 OUTER ITERATIONS 
       AND A TOTAL OF         14 INNER ITERATIONS.
    ------------------------------------------------

 NO OUTPUT CONTROL FOR STRESS PERIOD   17   TIME STEP    5
 
 SOLVING FOR HEAD 
                                                   Max.-Head-Change                         Max.-Flux-Residual
  Residual-Control   Outer-Iter.   Inner-Iter.     Column Row Layer    Maximum-Head-Change  Column Row Layer    Maximum-Flux-Residual          L2-NORM 
          0                 1           2             2   13     1       0.1593462950E-01       2   13    1         0.9054109834E+00      0.2444170321E+01
          0                 2           2             2    2     1       0.2188549287E-02       2    2    1         0.1141134891E+00      0.4152723414E+00
          0                 3           2            10   10     1       0.8760667990E-03      10   10    1         0.2275643432E-01      0.1230838679E+00
          0                 4           2            10   10     1       0.3936489650E-03      10   10    1         0.1022530959E-01      0.5069481465E-01
          0                 5           2            10   10     1       0.1768807528E-03      10   10    1         0.4594606104E-02      0.2239809500E-01
          0                 6           1            10   10     1       0.7947885696E-04      10   10    1         0.2064522754E-02      0.1000477061E-01
          0                 7           1            10   10     1       0.3571266132E-04      10   10    1         0.9276638440E-03      0.4476629129E-02
          0                 8           1            10   10     1       0.1604694546E-04      10   10    1         0.4168320961E-03      0.2003744961E-02
          0                 9           1            10   10     1       0.7210446016E-05      10   10    1         0.1872971855E-03      0.8969912469E-03

    ------------------------------------------------
       NWT REQUIRED            9 OUTER ITERATIONS 
       AND A TOTAL OF         14 INNER ITERATIONS.
    ------------------------------------------------

 NO OUTPUT CONTROL FOR STRESS PERIOD   17   TIME STEP    6
 
 SOLVING FOR HEAD 
                                                   Max.-Head-Change                         Max.-Flux-Residual
  Residual-Control   Outer-Iter.   Inner-Iter.     Column Row Layer    Maximum-Head-Change  Column Row Layer    Maximum-Flux-Residual          L2-NORM 
          0                 1           2             2   13     1       0.1463121464E-01       2   13    1         0.8312301489E+00      0.2359317058E+01
          0                 2           2             2    2     1       0.2174852523E-02       2    2    1         0.1133907959E+00      0.4103885190E+00
          0                 3           2            10   10     1       0.8754197665E-03      10   10    1         0.2273964189E-01      0.1230653434E+00
          0                 4           2            10   10     1       0.3933579213E-03      10   10    1         0.1021775606E-01      0.5076073030E-01
          0                 5           2            10   10     1       0.1767498395E-03      10   10    1         0.4591208438E-02      0.2242891168E-01
          0                 6           1            10   10     1       0.7941997182E-04      10   10    1         0.2062994459E-02      0.1001814843E-01
          0                 7           1            10   10     1       0.3568617481E-04      10   10    1         0.9269764159E-03      0.4482397646E-02
          0                 8           1            10   10     1       0.1603503242E-04      10   10    1         0.4165228962E-03      0.2006231795E-02
          0                 9           1            10   10     1       0.7205087387E-05      10   10    1         0.1871581072E-03      0.8980643786E-03

    ------------------------------------------------
       NWT REQUIRED            9 OUTER ITERATIONS 
       AND A TOTAL OF         14 INNER ITERATIONS.
    ------------------------------------------------

 NO OUTPUT CONTROL FOR STRESS PERIOD   17   TIME STEP    7
 
 SOLVING FOR HEAD 
                                                   Max.-Head-Change                         Max.-Flux-Residual
  Residual-Control   Outer-Iter.   Inner-Iter.     Column Row Layer    Maximum-Head-Change  Column Row Layer    Maximum-Flux-Residual          L2-NORM 
          0                 1           2             2   13     1       0.1343644397E-01       2   13    1         0.7632366105E+00      0.2285116358E+01
          0                 2           2             2    2     1       0.2161417007E-02       2    2    1         0.1126819296E+00      0.4063266469E+00
          0                 3           2            10   10     1       0.8747510170E-03      10   10    1         0.2272228570E-01      0.1230720985E+00
          0                 4           2            10   10     1       0.3930571122E-03      10   10    1         0.1020994902E-01      0.5082468688E-01
          0                 5           2            10   10     1       0.1766145344E-03      10   10    1         0.4587696774E-02      0.2245848943E-01
          0                 6           1            10   10     1       0.7935911205E-04      10   10    1         0.2061414909E-02      0.1003096213E-01
          0                 7           1            10   10     1       0.3565880066E-04      10   10    1         0.9262659403E-03      0.4487915676E-02
          0                 8           1            10   10     1       0.1602271970E-04      10   10    1         0.4162033304E-03      0.2008608718E-02
          0                 9           1            10   10     1       0.7199549678E-05      10   10    1         0.1870143735E-03      0.8990887584E-03

    ------------------------------------------------
       NWT REQUIRED            9 OUTER ITERATIONS 
       AND A TOTAL OF         14 INNER ITERATIONS.
    ------------------------------------------------

 NO OUTPUT CONTROL FOR STRESS PERIOD   17   TIME STEP    8
 
 SOLVING FOR HEAD 
                                                   Max.-Head-Change                         Max.-Flux-Residual
  Residual-Control   Outer-Iter.   Inner-Iter.     Column Row Layer    Maximum-Head-Change  Column Row Layer    Maximum-Flux-Residual          L2-NORM 
          0                 1           2             2    2     1       0.1237271402E-01       2   13    1         0.7009067613E+00      0.2220404352E+01
          0                 2           2             2    2     1       0.2148252155E-02       2    2    1         0.1119873779E+00      0.4028640455E+00
          0                 3           2            10   10     1       0.8741050180E-03      10   10    1         0.2270552064E-01      0.1230896618E+00
          0                 4           2            10   10     1       0.3927665222E-03      10   10    1         0.1020240751E-01      0.5088616039E-01
          0                 5           2            10   10     1       0.1764838196E-03      10   10    1         0.4584304374E-02      0.2248684626E-01
          0                 6           1            10   10     1       0.7930031344E-04      10   10    1         0.2059888920E-02      0.1004323914E-01
          0                 7           1            10   10     1       0.3563235216E-04      10   10    1         0.9255795214E-03      0.4493198928E-02
          0                 8           1            10   10     1       0.1601082292E-04      10   10    1         0.4158945707E-03      0.2010882364E-02
          0                 9           1            10   10     1       0.7194198302E-05      10   10    1         0.1868754892E-03      0.9000685297E-03

    ------------------------------------------------
       NWT REQUIRED            9 OUTER ITERATIONS 
       AND A TOTAL OF         14 INNER ITERATIONS.
    ------------------------------------------------

 NO OUTPUT CONTROL FOR STRESS PERIOD   17   TIME STEP    9
 
 SOLVING FOR HEAD 
                                                   Max.-Head-Change                         Max.-Flux-Residual
  Residual-Control   Outer-Iter.   Inner-Iter.     Column Row Layer    Maximum-Head-Change  Column Row Layer    Maximum-Flux-Residual          L2-NORM 
          0                 1           2             2    2     1       0.1229694620E-01       2   13    1         0.6437711774E+00      0.2163727310E+01
          0                 2           2             2    2     1       0.2135320894E-02       2    2    1         0.1113052007E+00      0.3998649357E+00
          0                 3           2            10   10     1       0.8734373933E-03      10   10    1         0.2268819315E-01      0.1231092649E+00
          0                 4           2            10   10     1       0.3924662291E-03      10   10    1         0.1019461365E-01      0.5094267945E-01
          0                 5           2            10   10     1       0.1763487509E-03      10   10    1         0.4580798753E-02      0.2251294622E-01
          0                 6           1            10   10     1       0.7923956172E-04      10   10    1         0.2058312133E-02      0.1005454536E-01
          0                 7           1             8    2     1       0.3560600722E-04      10   10    1         0.9248703087E-03      0.4498072072E-02
          0                 8           1             8    2     1       0.1599966372E-04       8    2    1         0.4155902775E-03      0.2012976376E-02
          0                 9           1             8    2     1       0.7189489462E-05       8    2    1         0.1867466867E-03      0.9009696627E-03

    ------------------------------------------------
       NWT REQUIRED            9 OUTER ITERATIONS 
       AND A TOTAL OF         14 INNER ITERATIONS.
    ------------------------------------------------

 NO OUTPUT CONTROL FOR STRESS PERIOD   17   TIME STEP   10
 
 SOLVING FOR HEAD 
                                                   Max.-Head-Change                         Max.-Flux-Residual
  Residual-Control   Outer-Iter.   Inner-Iter.     Column Row Layer    Maximum-Head-Change  Column Row Layer    Maximum-Flux-Residual          L2-NORM 
          0                 1           2             2    2     1       0.1222270066E-01       2    2    1         0.6377359275E+00      0.2114342436E+01
          0                 2           2             2    2     1       0.2122648627E-02       2    2    1         0.1106367184E+00      0.3972898405E+00
          0                 3           2             8    2     1       0.8727924895E-03      10   10    1         0.2267088185E-01      0.1231397335E+00
          0                 4           2             8    2     1       0.3921932129E-03       8    2    1         0.1018716559E-01      0.5099835557E-01
          0                 5           2             8    2     1       0.1762336213E-03       8    2    1         0.4577647793E-02      0.2253848554E-01
          0                 6           1             8    2     1       0.7919122626E-04       8    2    1         0.2056984401E-02      0.1006557386E-01
          0                 7           1             8    2     1       0.3558483707E-04       8    2    1         0.9243133672E-03      0.4502801904E-02
          0                 8           1             8    2     1       0.1599014824E-04       8    2    1         0.4153431669E-03      0.2015011985E-02
          0                 9           1             8    2     1       0.7185212062E-05       8    2    1         0.1866356081E-03      0.9018463098E-03

    ------------------------------------------------
       NWT REQUIRED            9 OUTER ITERATIONS 
       AND A TOTAL OF         14 INNER ITERATIONS.
    ------------------------------------------------

 NO OUTPUT CONTROL FOR STRESS PERIOD   17   TIME STEP   11
 
 SOLVING FOR HEAD 
                                                   Max.-Head-Change                         Max.-Flux-Residual
  Residual-Control   Outer-Iter.   Inner-Iter.     Column Row Layer    Maximum-Head-Change  Column Row Layer    Maximum-Flux-Residual          L2-NORM 
          0                 1           2             2    2     1       0.1214985383E-01       2    2    1         0.6339002370E+00      0.2071036141E+01
          0                 2           2             2    2     1       0.2110213888E-02       2    2    1         0.1099808136E+00      0.3949029577E+00
          0                 3           2             8    2     1       0.8722519438E-03       8    2    1         0.2265661178E-01      0.1231346599E+00
          0                 4           2             8    2     1       0.3919502688E-03       8    2    1         0.1018085615E-01      0.5104032623E-01
          0                 5           2             8    2     1       0.1761244325E-03       8    2    1         0.4574812066E-02      0.2255875952E-01
          0                 6           1             8    2     1       0.7914215297E-04       8    2    1         0.2055709917E-02      0.1007447265E-01
          0                 7           1             8    2     1       0.3556278178E-04       8    2    1         0.9237405685E-03      0.4506661652E-02
          0                 8           1             8    2     1       0.1598023609E-04       8    2    1         0.4150857389E-03      0.2016683317E-02
          0                 9           1             8    2     1       0.7180757585E-05       8    2    1         0.1865199148E-03      0.9025697207E-03

    ------------------------------------------------
       NWT REQUIRED            9 OUTER ITERATIONS 
       AND A TOTAL OF         14 INNER ITERATIONS.
    ------------------------------------------------

 NO OUTPUT CONTROL FOR STRESS PERIOD   17   TIME STEP   12
 
 SOLVING FOR HEAD 
                                                   Max.-Head-Change                         Max.-Flux-Residual
  Residual-Control   Outer-Iter.   Inner-Iter.     Column Row Layer    Maximum-Head-Change  Column Row Layer    Maximum-Flux-Residual          L2-NORM 
          0                 1           2             2    2     1       0.1207846254E-01       2    2    1         0.6301412930E+00      0.2031820246E+01
          0                 2           2             2    2     1       0.2098026811E-02       2    2    1         0.1093380036E+00      0.3927656274E+00
          0                 3           2             8    2     1       0.8717126226E-03       8    2    1         0.2264260515E-01      0.1231498776E+00
          0                 4           2             8    2     1       0.3917078782E-03       8    2    1         0.1017456102E-01      0.5108738531E-01
          0                 5           2             8    2     1       0.1760154942E-03       8    2    1         0.4571982806E-02      0.2258096109E-01
          0                 6           1             8    2     1       0.7909319299E-04       8    2    1         0.2054438356E-02      0.1008416390E-01
          0                 7           1             8    2     1       0.3554077776E-04       8    2    1         0.9231690929E-03      0.4510850510E-02
          0                 8           1             8    2     1       0.1597034720E-04       8    2    1         0.4148289025E-03      0.2018491171E-02
          0                 9           1             8    2     1       0.7176313112E-05       8    2    1         0.1864044855E-03      0.9033491397E-03

    ------------------------------------------------
       NWT REQUIRED            9 OUTER ITERATIONS 
       AND A TOTAL OF         14 INNER ITERATIONS.
    ------------------------------------------------

 NO OUTPUT CONTROL FOR STRESS PERIOD   17   TIME STEP   13
 
 SOLVING FOR HEAD 
                                                   Max.-Head-Change                         Max.-Flux-Residual
  Residual-Control   Outer-Iter.   Inner-Iter.     Column Row Layer    Maximum-Head-Change  Column Row Layer    Maximum-Flux-Residual          L2-NORM 
          0                 1           2             2    2     1       0.1200840488E-01       2    2    1         0.6264527197E+00      0.1998803923E+01
          0                 2           2             2    2     1       0.2086066361E-02       2    2    1         0.1087071865E+00      0.3910750471E+00
          0                 3           2             8    2     1       0.8711745354E-03       8    2    1         0.2262863042E-01      0.1231891578E+00
          0                 4           2             8    2     1       0.3914660451E-03       8    2    1         0.1016828030E-01      0.5113581787E-01
          0                 5           2             8    2     1       0.1759068082E-03       8    2    1         0.4569160067E-02      0.2260312110E-01
          0                 6           1             8    2     1       0.7904434705E-04       8    2    1         0.2053169742E-02      0.1009373578E-01
          0                 7           1             8    2     1       0.3551882576E-04       8    2    1         0.9225989450E-03      0.4514959376E-02
          0                 8           1             8    2     1       0.1596048132E-04       8    2    1         0.4145726600E-03      0.2020255039E-02
          0                 9           1             8    2     1       0.7171879143E-05       8    2    1         0.1862893243E-03      0.9041074978E-03

    ------------------------------------------------
       NWT REQUIRED            9 OUTER ITERATIONS 
       AND A TOTAL OF         14 INNER ITERATIONS.
    ------------------------------------------------

 NO OUTPUT CONTROL FOR STRESS PERIOD   17   TIME STEP   14
 
 SOLVING FOR HEAD 
                                                   Max.-Head-Change                         Max.-Flux-Residual
  Residual-Control   Outer-Iter.   Inner-Iter.     Column Row Layer    Maximum-Head-Change  Column Row Layer    Maximum-Flux-Residual          L2-NORM 
          0                 1           2             2    2     1       0.1193965027E-01       2    2    1         0.6228328837E+00      0.1969892962E+01
          0                 2           2             2    2     1       0.2074327449E-02       2    2    1         0.1080880891E+00      0.3896169499E+00
          0                 3           2             8    2     1       0.8706375970E-03       8    2    1         0.2261468608E-01      0.1232311656E+00
          0                 4           2             8    2     1       0.3912247169E-03       8    2    1         0.1016201294E-01      0.5118183907E-01
          0                 5           2             8    2     1       0.1757983438E-03       8    2    1         0.4566343197E-02      0.2262410923E-01
          0                 6           1             8    2     1       0.7899559841E-04       8    2    1         0.2051903710E-02      0.1010279580E-01
          0                 7           1             8    2     1       0.3549691603E-04       8    2    1         0.9220299381E-03      0.4518848426E-02
          0                 8           1             8    2     1       0.1595063445E-04       8    2    1         0.4143169305E-03      0.2021922326E-02
          0                 9           1             8    2     1       0.7167453678E-05       8    2    1         0.1861743927E-03      0.9048225175E-03

    ------------------------------------------------
       NWT REQUIRED            9 OUTER ITERATIONS 
       AND A TOTAL OF         14 INNER ITERATIONS.
    ------------------------------------------------

 NO OUTPUT CONTROL FOR STRESS PERIOD   17   TIME STEP   15
 
 SOLVING FOR HEAD 
                                                   Max.-Head-Change                         Max.-Flux-Residual
  Residual-Control   Outer-Iter.   Inner-Iter.     Column Row Layer    Maximum-Head-Change  Column Row Layer    Maximum-Flux-Residual          L2-NORM 
          0                 1           2             2    2     1       0.1187216864E-01       2    2    1         0.6192802162E+00      0.1944581587E+01
          0                 2           2             2    2     1       0.2062804772E-02       2    2    1         0.1074804396E+00      0.3883390142E+00
          0                 3           2             8    2     1       0.8701249930E-03       8    2    1         0.2260137417E-01      0.1232734648E+00
          0                 4           2             8    2     1       0.3909943164E-03       8    2    1         0.1015602958E-01      0.5122574736E-01
          0                 5           2             8    2     1       0.1756947858E-03       8    2    1         0.4563653845E-02      0.2264413494E-01
          0                 6           1             8    2     1       0.7894905299E-04       8    2    1         0.2050694936E-02      0.1011143995E-01
          0                 7           1             8    2     1       0.3547599574E-04       8    2    1         0.9214866398E-03      0.4522554585E-02
          0                 8           1             8    2     1       0.1594123178E-04       8    2    1         0.4140727419E-03      0.2023512904E-02
          0                 9           1             8    2     1       0.7163227552E-05       8    2    1         0.1860646401E-03      0.9055069003E-03

    ------------------------------------------------
       NWT REQUIRED            9 OUTER ITERATIONS 
       AND A TOTAL OF         14 INNER ITERATIONS.
    ------------------------------------------------

 NO OUTPUT CONTROL FOR STRESS PERIOD   17   TIME STEP   16
 
 SOLVING FOR HEAD 
                                                   Max.-Head-Change                         Max.-Flux-Residual
  Residual-Control   Outer-Iter.   Inner-Iter.     Column Row Layer    Maximum-Head-Change  Column Row Layer    Maximum-Flux-Residual          L2-NORM 
          0                 1           2             2    2     1       0.1180601961E-01       2    2    1         0.6157978232E+00      0.1922061215E+01
          0                 2           2             2    2     1       0.2051508829E-02       2    2    1         0.1068847777E+00      0.3871339959E+00
          0                 3           2             8    2     1       0.8695904636E-03       8    2    1         0.2258749136E-01      0.1232757693E+00
          0                 4           2             8    2     1       0.3907540930E-03       8    2    1         0.1014979045E-01      0.5124743943E-01
          0                 5           2             8    2     1       0.1755868279E-03       8    2    1         0.4560849917E-02      0.2265343212E-01
          0                 6           1             8    2     1       0.7890053645E-04       8    2    1         0.2049434833E-02      0.1011500287E-01
          0                 7           1             8    2     1       0.3545419231E-04       8    2    1         0.9209203451E-03      0.4523877039E-02
          0                 8           1             8    2     1       0.1593143343E-04       8    2    1         0.4138182502E-03      0.2023990190E-02
          0                 9           1             8    2     1       0.7158824597E-05       8    2    1         0.1859502743E-03      0.9056712671E-03

    ------------------------------------------------
       NWT REQUIRED            9 OUTER ITERATIONS 
       AND A TOTAL OF         14 INNER ITERATIONS.
    ------------------------------------------------

 NO OUTPUT CONTROL FOR STRESS PERIOD   17   TIME STEP   17
 
 SOLVING FOR HEAD 
                                                   Max.-Head-Change                         Max.-Flux-Residual
  Residual-Control   Outer-Iter.   Inner-Iter.     Column Row Layer    Maximum-Head-Change  Column Row Layer    Maximum-Flux-Residual          L2-NORM 
          0                 1           2             2    2     1       0.1174108415E-01       2    2    1         0.6123794625E+00      0.1902183933E+01
          0                 2           2             2    2     1       0.2040419044E-02       2    2    1         0.1063000294E+00      0.3860004486E+00
          0                 3           2             8    2     1       0.8690570491E-03       8    2    1         0.2257363851E-01      0.1232435223E+00
          0                 4           2             8    2     1       0.3905143493E-03       8    2    1         0.1014356422E-01      0.5125422690E-01
          0                 5           2             8    2     1       0.1754790758E-03       8    2    1         0.4558051532E-02      0.2265754444E-01
          0                 6           1             8    2     1       0.7885210795E-04       8    2    1         0.2048177109E-02      0.1011689843E-01
          0                 7           1             8    2     1       0.3543242690E-04       8    2    1         0.9203550735E-03      0.4524721768E-02
          0                 8           1             8    2     1       0.1592165108E-04       8    2    1         0.4135641931E-03      0.2024375587E-02
          0                 9           1             8    2     1       0.7154427895E-05       8    2    1         0.1858360938E-03      0.9058675295E-03

    ------------------------------------------------
       NWT REQUIRED            9 OUTER ITERATIONS 
       AND A TOTAL OF         14 INNER ITERATIONS.
    ------------------------------------------------

 NO OUTPUT CONTROL FOR STRESS PERIOD   17   TIME STEP   18
 
 SOLVING FOR HEAD 
                                                   Max.-Head-Change                         Max.-Flux-Residual
  Residual-Control   Outer-Iter.   Inner-Iter.     Column Row Layer    Maximum-Head-Change  Column Row Layer    Maximum-Flux-Residual          L2-NORM 
          0                 1           2             2    2     1       0.1167733443E-01       2    2    1         0.6090236417E+00      0.1884603202E+01
          0                 2           2             2    2     1       0.2029530934E-02       2    2    1         0.1057259467E+00      0.3850686303E+00
          0                 3           2             8    2     1       0.8685248938E-03       8    2    1         0.2255981771E-01      0.1232661588E+00
          0                 4           2             8    2     1       0.3902751854E-03       8    2    1         0.1013735276E-01      0.5128426349E-01
          0                 5           2             8    2     1       0.1753715908E-03       8    2    1         0.4555259958E-02      0.2267153519E-01
          0                 6           1             8    2     1       0.7880380226E-04       8    2    1         0.2046922520E-02      0.1012299167E-01
          0                 7           1             8    2     1       0.3541071751E-04       8    2    1         0.9197912421E-03      0.4527353101E-02
          0                 8           1             8    2     1       0.1591189500E-04       8    2    1         0.4133108067E-03      0.2025498814E-02
          0                 9           1             8    2     1       0.7150043949E-05       8    2    1         0.1857222214E-03      0.9063249312E-03

    ------------------------------------------------
       NWT REQUIRED            9 OUTER ITERATIONS 
       AND A TOTAL OF         14 INNER ITERATIONS.
    ------------------------------------------------

 NO OUTPUT CONTROL FOR STRESS PERIOD   17   TIME STEP   19
 
 SOLVING FOR HEAD 
                                                   Max.-Head-Change                         Max.-Flux-Residual
  Residual-Control   Outer-Iter.   Inner-Iter.     Column Row Layer    Maximum-Head-Change  Column Row Layer    Maximum-Flux-Residual          L2-NORM 
          0                 1           2             2    2     1       0.1161483264E-01       2    2    1         0.6057336252E+00      0.1868936847E+01
          0                 2           2             2    2     1       0.2018855196E-02       2    2    1         0.1051630906E+00      0.3842034483E+00
          0                 3           2             8    2     1       0.8679940756E-03       8    2    1         0.2254603075E-01      0.1232875694E+00
          0                 4           2             8    2     1       0.3900366412E-03       8    2    1         0.1013115699E-01      0.5131389791E-01
          0                 5           2             8    2     1       0.1752643920E-03       8    2    1         0.4552475647E-02      0.2268550330E-01
          0                 6           1             8    2     1       0.7875562962E-04       8    2    1         0.2045671299E-02      0.1012911425E-01
          0                 7           1             8    2     1       0.3538906990E-04       8    2    1         0.9192289662E-03      0.4530007952E-02
          0                 8           1             8    2     1       0.1590216718E-04       8    2    1         0.4130581322E-03      0.2026646482E-02
          0                 9           1             8    2     1       0.7145672258E-05       8    2    1         0.1856086734E-03      0.9068224999E-03

    ------------------------------------------------
       NWT REQUIRED            9 OUTER ITERATIONS 
       AND A TOTAL OF         14 INNER ITERATIONS.
    ------------------------------------------------

 NO OUTPUT CONTROL FOR STRESS PERIOD   17   TIME STEP   20
 
 SOLVING FOR HEAD 
                                                   Max.-Head-Change                         Max.-Flux-Residual
  Residual-Control   Outer-Iter.   Inner-Iter.     Column Row Layer    Maximum-Head-Change  Column Row Layer    Maximum-Flux-Residual          L2-NORM 
          0                 1           2             2    2     1       0.1155346184E-01       2    2    1         0.6025032776E+00      0.1854298048E+01
          0                 2           2             2    2     1       0.2008371636E-02       2    2    1         0.1046104060E+00      0.3833610628E+00
          0                 3           2             8    2     1       0.8674644705E-03       8    2    1         0.2253227583E-01      0.1233113305E+00
          0                 4           2             8    2     1       0.3897986310E-03       8    2    1         0.1012497534E-01      0.5134538847E-01
          0                 5           2             8    2     1       0.1751574295E-03       8    2    1         0.4549697554E-02      0.2270003478E-01
          0                 6           1             8    2     1       0.7870755978E-04       8    2    1         0.2044422801E-02      0.1013532338E-01
          0                 7           1             8    2     1       0.3536746756E-04       8    2    1         0.9186678915E-03      0.4532633152E-02
          0                 8           1             8    2     1       0.1589245937E-04       8    2    1         0.4128059874E-03      0.2027754630E-02
          0                 9           1             8    2     1       0.7141309571E-05       8    2    1         0.1854953619E-03      0.9072877149E-03

    ------------------------------------------------
       NWT REQUIRED            9 OUTER ITERATIONS 
       AND A TOTAL OF         14 INNER ITERATIONS.
    ------------------------------------------------

 NO OUTPUT CONTROL FOR STRESS PERIOD   17   TIME STEP   21
 
 SOLVING FOR HEAD 
                                                   Max.-Head-Change                         Max.-Flux-Residual
  Residual-Control   Outer-Iter.   Inner-Iter.     Column Row Layer    Maximum-Head-Change  Column Row Layer    Maximum-Flux-Residual          L2-NORM 
          0                 1           2             2    2     1       0.1149328522E-01       2    2    1         0.5993358952E+00      0.1841503200E+01
          0                 2           2             2    2     1       0.1998091353E-02       2    2    1         0.1040684650E+00      0.3826343155E+00
          0                 3           2             8    2     1       0.8669130104E-03       8    2    1         0.2251795230E-01      0.1233266033E+00
          0                 4           2             8    2     1       0.3895508200E-03       8    2    1         0.1011853869E-01      0.5136901240E-01
          0                 5           2             8    2     1       0.1750460705E-03       8    2    1         0.4546805097E-02      0.2271093370E-01
          0                 6           1             8    2     1       0.7865751956E-04       8    2    1         0.2043123027E-02      0.1013997482E-01
          0                 7           1             8    2     1       0.3534498158E-04       8    2    1         0.9180838189E-03      0.4534598312E-02
          0                 8           1             8    2     1       0.1588235464E-04       8    2    1         0.4125435229E-03      0.2028584120E-02
          0                 9           1             8    2     1       0.7136769055E-05       8    2    1         0.1853774244E-03      0.9076386003E-03

    ------------------------------------------------
       NWT REQUIRED            9 OUTER ITERATIONS 
       AND A TOTAL OF         14 INNER ITERATIONS.
    ------------------------------------------------

 NO OUTPUT CONTROL FOR STRESS PERIOD   17   TIME STEP   22
 
 SOLVING FOR HEAD 
                                                   Max.-Head-Change                         Max.-Flux-Residual
  Residual-Control   Outer-Iter.   Inner-Iter.     Column Row Layer    Maximum-Head-Change  Column Row Layer    Maximum-Flux-Residual          L2-NORM 
          0                 1           2             2    2     1       0.1143418713E-01       2    2    1         0.5962254143E+00      0.1830466070E+01
          0                 2           2             2    2     1       0.1987994338E-02       2    2    1         0.1035362238E+00      0.3820518538E+00
          0                 3           2             8    2     1       0.8663861502E-03       2    3    1         0.2255158832E-01      0.1233600886E+00
          0                 4           2             8    2     1       0.3893140654E-03       8    2    1         0.1011238917E-01      0.5139855715E-01
          0                 5           2             8    2     1       0.1749396820E-03       8    2    1         0.4544041713E-02      0.2272437027E-01
          0                 6           1             8    2     1       0.7860971283E-04       8    2    1         0.2041881264E-02      0.1014574720E-01
          0                 7           1             8    2     1       0.3532349929E-04       8    2    1         0.9175258209E-03      0.4537060212E-02
          0                 8           1             8    2     1       0.1587270160E-04       8    2    1         0.4122927846E-03      0.2029632553E-02
          0                 9           1             8    2     1       0.7132431379E-05       8    2    1         0.1852647528E-03      0.9080855317E-03

    ------------------------------------------------
       NWT REQUIRED            9 OUTER ITERATIONS 
       AND A TOTAL OF         14 INNER ITERATIONS.
    ------------------------------------------------

 NO OUTPUT CONTROL FOR STRESS PERIOD   17   TIME STEP   23
 
 SOLVING FOR HEAD 
                                                   Max.-Head-Change                         Max.-Flux-Residual
  Residual-Control   Outer-Iter.   Inner-Iter.     Column Row Layer    Maximum-Head-Change  Column Row Layer    Maximum-Flux-Residual          L2-NORM 
          0                 1           2             2    2     1       0.1137614308E-01       2    2    1         0.5931705188E+00      0.1820391963E+01
          0                 2           2             2    2     1       0.1978076668E-02       2    2    1         0.1030134643E+00      0.3814902273E+00
          0                 3           2             2    3     1       0.8695006585E-03       2    3    1         0.2272078856E-01      0.1233893282E+00
          0                 4           2             8    2     1       0.3890777625E-03       2    3    1         0.1013517881E-01      0.5142640595E-01
          0                 5           2             8    2     1       0.1748334794E-03       8    2    1         0.4541283502E-02      0.2273712833E-01
          0                 6           1             8    2     1       0.7856198214E-04       8    2    1         0.2040641637E-02      0.1015123290E-01
          0                 7           1             8    2     1       0.3530204802E-04       8    2    1         0.9169687051E-03      0.4539398679E-02
          0                 8           1             8    2     1       0.1586306132E-04       8    2    1         0.4120424102E-03      0.2030630759E-02
          0                 9           1             8    2     1       0.7128099206E-05       8    2    1         0.1851522341E-03      0.9085155776E-03

    ------------------------------------------------
       NWT REQUIRED            9 OUTER ITERATIONS 
       AND A TOTAL OF         14 INNER ITERATIONS.
    ------------------------------------------------

 NO OUTPUT CONTROL FOR STRESS PERIOD   17   TIME STEP   24
 
 SOLVING FOR HEAD 
                                                   Max.-Head-Change                         Max.-Flux-Residual
  Residual-Control   Outer-Iter.   Inner-Iter.     Column Row Layer    Maximum-Head-Change  Column Row Layer    Maximum-Flux-Residual          L2-NORM 
          0                 1           2             2    2     1       0.1131921817E-01       2    2    1         0.5901746461E+00      0.1811167690E+01
          0                 2           2             2    2     1       0.1968349342E-02       2    2    1         0.1025007720E+00      0.3809640157E+00
          0                 3           2             2    3     1       0.8756903426E-03       2    3    1         0.2288346382E-01      0.1234143555E+00
          0                 4           2             2    3     1       0.3899995497E-03       2    3    1         0.1020723439E-01      0.5145160035E-01
          0                 5           2             8    2     1       0.1747275791E-03       2    3    1         0.4544338534E-02      0.2274870376E-01
          0                 6           1             8    2     1       0.7851439401E-04       8    2    1         0.2039405571E-02      0.1015621509E-01
          0                 7           1             8    2     1       0.3528066327E-04       8    2    1         0.9164132432E-03      0.4541524481E-02
          0                 8           1             8    2     1       0.1585345155E-04       8    2    1         0.4117927996E-03      0.2031534593E-02
          0                 9           1             8    2     1       0.7123780788E-05       8    2    1         0.1850400657E-03      0.9088942584E-03

    ------------------------------------------------
       NWT REQUIRED            9 OUTER ITERATIONS 
       AND A TOTAL OF         14 INNER ITERATIONS.
    ------------------------------------------------

 NO OUTPUT CONTROL FOR STRESS PERIOD   17   TIME STEP   25
 
 SOLVING FOR HEAD 
                                                   Max.-Head-Change                         Max.-Flux-Residual
  Residual-Control   Outer-Iter.   Inner-Iter.     Column Row Layer    Maximum-Head-Change  Column Row Layer    Maximum-Flux-Residual          L2-NORM 
          0                 1           2             2    2     1       0.1126338797E-01       2    2    1         0.5872364678E+00      0.1802860208E+01
          0                 2           2             2    3     1       0.1974968327E-02       2    2    1         0.1019979309E+00      0.3804794391E+00
          0                 3           2             2    3     1       0.8816876040E-03       2    3    1         0.2304108337E-01      0.1234318177E+00
          0                 4           2             2    3     1       0.3926592488E-03       2    3    1         0.1027704978E-01      0.5147247737E-01
          0                 5           2             2    3     1       0.1747093893E-03       2    3    1         0.4575309328E-02      0.2275848290E-01
          0                 6           1             8    2     1       0.7846486678E-04       8    2    1         0.2038118959E-02      0.1016047488E-01
          0                 7           1             8    2     1       0.3525841114E-04       8    2    1         0.9158351794E-03      0.4543360922E-02
          0                 8           1             8    2     1       0.1584345412E-04       8    2    1         0.4115330845E-03      0.2032324350E-02
          0                 9           1             8    2     1       0.7119289044E-05       8    2    1         0.1849233804E-03      0.9092336773E-03

    ------------------------------------------------
       NWT REQUIRED            9 OUTER ITERATIONS 
       AND A TOTAL OF         14 INNER ITERATIONS.
    ------------------------------------------------

 NO OUTPUT CONTROL FOR STRESS PERIOD   17   TIME STEP   26
 
 SOLVING FOR HEAD 
                                                   Max.-Head-Change                         Max.-Flux-Residual
  Residual-Control   Outer-Iter.   Inner-Iter.     Column Row Layer    Maximum-Head-Change  Column Row Layer    Maximum-Flux-Residual          L2-NORM 
          0                 1           2             2    2     1       0.1120844958E-01       2    2    1         0.5843453907E+00      0.1795359458E+01
          0                 2           2             2    3     1       0.1987990857E-02       2    2    1         0.1015031052E+00      0.3800126617E+00
          0                 3           2             2    3     1       0.8874516056E-03       2    3    1         0.2319257050E-01      0.1234362189E+00
          0                 4           2             2    3     1       0.3952155985E-03       2    3    1         0.1034414994E-01      0.5148704820E-01
          0                 5           2             2    3     1       0.1758440200E-03       2    3    1         0.4605076904E-02      0.2276562780E-01
          0                 6           1             8    2     1       0.7841751000E-04       2    3    1         0.2048682087E-02      0.1016364005E-01
          0                 7           1             8    2     1       0.3523712919E-04       8    2    1         0.9152824322E-03      0.4544739936E-02
          0                 8           1             8    2     1       0.1583389037E-04       8    2    1         0.4112846840E-03      0.2032921827E-02
          0                 9           1             8    2     1       0.7114991386E-05       8    2    1         0.1848117511E-03      0.9094934511E-03

    ------------------------------------------------
       NWT REQUIRED            9 OUTER ITERATIONS 
       AND A TOTAL OF         14 INNER ITERATIONS.
    ------------------------------------------------

 NO OUTPUT CONTROL FOR STRESS PERIOD   17   TIME STEP   27
 
 SOLVING FOR HEAD 
                                                   Max.-Head-Change                         Max.-Flux-Residual
  Residual-Control   Outer-Iter.   Inner-Iter.     Column Row Layer    Maximum-Head-Change  Column Row Layer    Maximum-Flux-Residual          L2-NORM 
          0                 1           2             2    2     1       0.1115456062E-01       2    2    1         0.5815096156E+00      0.1788531405E+01
          0                 2           2             2    3     1       0.2000611618E-02       2    2    1         0.1010177238E+00      0.3796186313E+00
          0                 3           2             2    3     1       0.8930377769E-03       2    3    1         0.2333938316E-01      0.1234588492E+00
          0                 4           2             2    3     1       0.3976931257E-03       2    3    1         0.1040918001E-01      0.5150843313E-01
          0                 5           2             2    3     1       0.1769436933E-03       2    3    1         0.4633926736E-02      0.2277543507E-01
          0                 6           1             2    3     1       0.7870046137E-04       2    3    1         0.2061488792E-02      0.1016785474E-01
          0                 7           1             8    2     1       0.3521592353E-04       2    3    1         0.9168599927E-03      0.4546534394E-02
          0                 8           1             8    2     1       0.1582436214E-04       8    2    1         0.4110371748E-03      0.2033684756E-02
          0                 9           1             8    2     1       0.7110710486E-05       8    2    1         0.1847005420E-03      0.9098154164E-03

    ------------------------------------------------
       NWT REQUIRED            9 OUTER ITERATIONS 
       AND A TOTAL OF         14 INNER ITERATIONS.
    ------------------------------------------------

 NO OUTPUT CONTROL FOR STRESS PERIOD   17   TIME STEP   28
 
 SOLVING FOR HEAD 
                                                   Max.-Head-Change                         Max.-Flux-Residual
  Residual-Control   Outer-Iter.   Inner-Iter.     Column Row Layer    Maximum-Head-Change  Column Row Layer    Maximum-Flux-Residual          L2-NORM 
          0                 1           2             4   13     1      -0.9505531648E-02       4   13    1        -0.5526343210E+00      0.1831287841E+01
          0                 2           2             2    3     1       0.2000602371E-02       2    2    1         0.7786909546E-01      0.3674920080E+00
          0                 3           2             2    3     1       0.8922288851E-03       2    3    1         0.2333147704E-01      0.1216946294E+00
          0                 4           2             2    3     1       0.3971975322E-03       2    3    1         0.1039842819E-01      0.5132396278E-01
          0                 5           2             2    3     1       0.1767010268E-03       2    3    1         0.4627930092E-02      0.2274215039E-01
          0                 6           1             2    3     1       0.7858919522E-04       2    3    1         0.2058625749E-02      0.1015655451E-01
          0                 7           1             8    2     1       0.3519382072E-04       2    3    1         0.9155585955E-03      0.4541793750E-02
          0                 8           1             8    2     1       0.1581443098E-04       8    2    1         0.4107791937E-03      0.2031614043E-02
          0                 9           1             8    2     1       0.7106247754E-05       8    2    1         0.1845846183E-03      0.9089042010E-03

    ------------------------------------------------
       NWT REQUIRED            9 OUTER ITERATIONS 
       AND A TOTAL OF         14 INNER ITERATIONS.
    ------------------------------------------------

 NO OUTPUT CONTROL FOR STRESS PERIOD   17   TIME STEP   29
 
 SOLVING FOR HEAD 
                                                   Max.-Head-Change                         Max.-Flux-Residual
  Residual-Control   Outer-Iter.   Inner-Iter.     Column Row Layer    Maximum-Head-Change  Column Row Layer    Maximum-Flux-Residual          L2-NORM 
          0                 1           2             2   13     1      -0.1840840944E-01       2   13    1        -0.1039918882E+01      0.2392526307E+01
          0                 2           2             2    3     1       0.1988302894E-02       4   13    1         0.1026715976E+00      0.3860115770E+00
          0                 3           2             2    3     1       0.8858343490E-03       2    3    1         0.2317917014E-01      0.1206570894E+00
          0                 4           2             2    3     1       0.3942010021E-03       2    3    1         0.1032241265E-01      0.5109734541E-01
          0                 5           2             2    3     1       0.1753448824E-03       2    3    1         0.4592772939E-02      0.2268070066E-01
          0                 6           1             8    2     1       0.7827414160E-04       2    3    1         0.2042790091E-02      0.1013255473E-01
          0                 7           1             8    2     1       0.3517270784E-04       8    2    1         0.9136090549E-03      0.4531492705E-02
          0                 8           1             8    2     1       0.1580494302E-04       8    2    1         0.4105327583E-03      0.2027113801E-02
          0                 9           1             8    2     1       0.7101984361E-05       8    2    1         0.1844738816E-03      0.9069312031E-03

    ------------------------------------------------
       NWT REQUIRED            9 OUTER ITERATIONS 
       AND A TOTAL OF         14 INNER ITERATIONS.
    ------------------------------------------------

 NO OUTPUT CONTROL FOR STRESS PERIOD   17   TIME STEP   30



 STREAM LISTING     PERIOD     17   STEP       30

 LAYER ROW COL. STREAM  RCH.  FLOW INTO     FLOW TO   FLOW OUT OF   OVRLND.     DIRECT     STREAM       STREAM     STREAM     STREAM   STREAMBED  STREAMBED
                SEG.NO.  NO.  STRM. RCH.    AQUIFER    STRM. RCH.    RUNOFF     PRECIP       ET          HEAD       DEPTH      WIDTH   CONDCTNC.   GRADIENT

   1    1    1     1     1    3.5000E+01  2.8629E-01   3.4714E+01  0.000E+00  0.000E+00  0.000E+00  1.09434E+03  1.292E+00  1.482E+01  6.670E-02  1.431E+00
   1    2    2     1     2    3.4714E+01  4.4325E-01   3.4270E+01  0.000E+00  0.000E+00  0.000E+00  1.08935E+03  1.289E+00  1.476E+01  1.033E-01  1.430E+00
   1    3    3     1     3    3.4270E+01  3.7790E-01   3.3893E+01  0.000E+00  0.000E+00  0.000E+00  1.08370E+03  1.286E+00  1.470E+01  8.817E-02  1.429E+00
   1    3    4     1     4    3.3893E+01  3.4789E-01   3.3545E+01  0.000E+00  0.000E+00  0.000E+00  1.07869E+03  1.283E+00  1.464E+01  8.123E-02  1.428E+00
   1    4    5     2     1    3.1545E+01  3.4194E-01   3.1203E+01  0.000E+00  0.000E+00  0.000E+00  1.07332E+03  1.384E+00  1.200E+01  7.800E-02  1.461E+00
   1    5    6     2     2    3.1203E+01  2.6255E-01   3.0940E+01  0.000E+00  0.000E+00  0.000E+00  1.06789E+03  1.376E+00  1.200E+01  6.000E-02  1.459E+00
   1    6    6     2     3    3.0940E+01  2.6213E-01   3.0678E+01  0.000E+00  0.000E+00  0.000E+00  1.06316E+03  1.369E+00  1.200E+01  6.000E-02  1.456E+00
   1    7    6     2     4    3.0678E+01  2.6171E-01   3.0416E+01  0.000E+00  0.000E+00  0.000E+00  1.05844E+03  1.362E+00  1.200E+01  6.000E-02  1.454E+00
   1    8    6     2     5    3.0416E+01  2.6129E-01   3.0155E+01  0.000E+00  0.000E+00  0.000E+00  1.05371E+03  1.355E+00  1.200E+01  6.000E-02  1.452E+00
   1    3    5     3     1    2.0000E+00  2.8252E-01   1.7175E+00  0.000E+00  0.000E+00  0.000E+00  1.07555E+03  1.909E+00  9.636E+00  7.227E-02  1.955E+00
   1    3    6     3     2    1.7175E+00  2.4905E-01   1.4684E+00  0.000E+00  0.000E+00  0.000E+00  1.07264E+03  1.727E+00  8.909E+00  6.682E-02  1.864E+00
   1    3    7     3     3    1.4684E+00  1.9718E-01   1.2712E+00  0.000E+00  0.000E+00  0.000E+00  1.06987E+03  1.555E+00  8.218E+00  5.547E-02  1.777E+00
   1    4    8     3     4    1.2712E+00  2.2567E-01   1.0456E+00  0.000E+00  0.000E+00  0.000E+00  1.06682E+03  1.364E+00  7.455E+00  6.709E-02  1.682E+00
   1    5    8     3     5    1.0456E+00  1.5790E-01   8.8768E-01  0.000E+00  0.000E+00  0.000E+00  1.06362E+03  1.164E+00  6.655E+00  4.991E-02  1.582E+00
   1    6    8     3     6    8.8768E-01  5.5980E-02   8.3170E-01  0.000E+00  0.000E+00  0.000E+00  1.06158E+03  1.036E+00  6.145E+00  1.844E-02  1.518E+00
   1    5   10     4     1    1.0000E+01  9.0919E-02   9.9091E+00  0.000E+00  0.000E+00  0.000E+00  1.07836E+03  6.368E-01  1.000E+01  2.500E-02  1.212E+00
   1    5    9     4     2    9.9091E+00  1.8158E-01   9.7275E+00  0.000E+00  0.000E+00  0.000E+00  1.07154E+03  6.315E-01  1.000E+01  5.000E-02  1.211E+00
   1    6    8     4     3    9.7275E+00  1.2689E-01   9.6006E+00  0.000E+00  0.000E+00  0.000E+00  1.06381E+03  6.256E-01  1.000E+01  3.500E-02  1.209E+00
   1    6    8     5     1    1.0432E+01  2.2686E-01   1.0205E+01  0.000E+00  0.000E+00  0.000E+00  1.05868E+03  6.790E-01  1.542E+01  6.166E-02  1.226E+00
   1    7    7     5     2    1.0205E+01  2.7894E-01   9.9265E+00  0.000E+00  0.000E+00  0.000E+00  1.05417E+03  6.732E-01  1.519E+01  7.594E-02  1.224E+00
   1    8    7     5     3    9.9265E+00  1.9221E-01   9.7343E+00  0.000E+00  0.000E+00  0.000E+00  1.04992E+03  6.676E-01  1.497E+01  5.241E-02  1.223E+00
   1    8    6     5     4    9.7343E+00  1.3577E-01   9.5985E+00  0.000E+00  0.000E+00  0.000E+00  1.04691E+03  6.637E-01  1.482E+01  3.706E-02  1.221E+00
   1    9    6     6     1    3.9754E+01  2.7657E-01   3.9477E+01  0.000E+00  0.000E+00  0.000E+00  1.04434E+03  1.609E+00  1.200E+01  6.000E-02  1.536E+00
   1   10    7     6     2    3.9477E+01  2.7616E-01   3.9201E+01  0.000E+00  0.000E+00  0.000E+00  1.03978E+03  1.603E+00  1.200E+01  6.000E-02  1.534E+00
   1   11    7     6     3    3.9201E+01  2.7576E-01   3.8925E+01  0.000E+00  0.000E+00  0.000E+00  1.03523E+03  1.596E+00  1.200E+01  6.000E-02  1.532E+00
   1   12    7     6     4    3.8925E+01  2.7535E-01   3.8650E+01  0.000E+00  0.000E+00  0.000E+00  1.03068E+03  1.589E+00  1.200E+01  6.000E-02  1.530E+00
   1   13    7     6     5    3.8650E+01 -2.6675E-02   3.8676E+01  0.000E+00  0.000E+00  0.000E+00  1.02750E+03  1.586E+00  1.200E+01  2.400E-01 -3.705E-02
   1   14    9     7     1    1.5000E+02  1.1611E+00   1.4884E+02  0.000E+00  0.000E+00  0.000E+00  1.03987E+03  2.288E+00  5.530E+01  5.593E-01  6.920E-01
   1   13    8     7     2    1.4884E+02  1.5764E+00   1.4726E+02  0.000E+00  0.000E+00  0.000E+00  1.03478E+03  2.281E+00  5.526E+01  6.149E-01  8.546E-01
   1   13    7     7     3    1.4726E+02  1.1656E+00   1.4610E+02  0.000E+00  0.000E+00  0.000E+00  1.02969E+03  2.274E+00  5.523E+01  5.586E-01  6.955E-01
   1   13    6     8     1    1.8477E+02  6.6396E-01   1.8411E+02  0.000E+00  0.000E+00  0.000E+00  1.02492E+03  3.044E+00  4.414E+01  4.498E-01  4.921E-01
   1   13    5     8     2    1.8411E+02 -7.7045E-01   1.8488E+02  0.000E+00  0.000E+00  0.000E+00  1.01867E+03  3.044E+00  4.414E+01  4.498E+00 -5.709E-02
   1   13    4     8     3    1.8488E+02 -4.0783E+00   1.8896E+02  0.000E+00  0.000E+00  0.000E+00  1.01243E+03  3.059E+00  4.436E+01  4.520E+00 -3.007E-01
   1   13    3     8     4    1.8896E+02 -4.9612E+00   1.9392E+02  0.000E+00  0.000E+00  0.000E+00  1.00621E+03  3.087E+00  4.476E+01  4.561E+00 -3.626E-01
   1   13    2     8     5    1.9392E+02 -3.6062E+00   1.9753E+02  0.000E+00  0.000E+00  0.000E+00  9.99987E+02  3.112E+00  4.513E+01  4.599E+00 -2.614E-01
   1   13    1     8     6    1.9753E+02 -2.4347E+00   1.9996E+02  0.000E+00  0.000E+00  0.000E+00  9.95005E+02  3.130E+00  4.539E+01  2.775E+00 -2.924E-01
   1    6    8     9     1    0.0000E+00  0.0000E+00   0.0000E+00  0.000E+00  0.000E+00  0.000E+00  1.07850E+03  0.000E+00  4.000E+00  0.000E+00  1.000E+00





UNSATURATED ZONE PACKAGE VOLUMETRIC BUDGET FOR  TIME STEP    30 STRESS PERIOD   17
  ------------------------------------------------------------------------------



     CUMULATIVE VOLUMES      L**3       RATES FOR THIS TIME STEP      L**3/T
     ------------------                 ------------------------

           IN:                                      IN:
           ---                                      ---
        INFILTRATION =    26615969.2213          INFILTRATION =       0.0000E+00

          OUT:                                     OUT:
          ----                                     ----
              UZF ET =   553807316.0008                UZF ET =       0.0000E+00
        UZF RECHARGE =   993594003.0633          UZF RECHARGE =          20.9661

            IN - OUT = -1520785349.8428              IN - OUT =         -20.9661

          STORAGE:                                 STORAGE:
          --------                                 --------
      STORAGE CHANGE = -1520759880.5877        STORAGE CHANGE =         -20.9661

 PERCENT DISCREPANCY IS DIFFERENCE BETWEEN IN-OUT MINUS CHANGE IN STORAGE
 DIVIDED BY THE AVERAGE OF IN AND OUT TIMES 100

 PERCENT DISCREPANCY =          -0.00     PERCENT DISCREPANCY =           0.00






1
  VOLUMETRIC BUDGET FOR ENTIRE MODEL AT END OF TIME STEP   30, STRESS PERIOD  17
  ------------------------------------------------------------------------------

     CUMULATIVE VOLUMES      L**3       RATES FOR THIS TIME STEP      L**3/T
     ------------------                 ------------------------

           IN:                                      IN:
           ---                                      ---
             STORAGE     =    32477314.0000               STORAGE     =           3.8978
       CONSTANT HEAD     =           0.0000         CONSTANT HEAD     =           0.0000
               WELLS     =           0.0000                 WELLS     =           0.0000
     HEAD DEP BOUNDS     =    11603224.0000       HEAD DEP BOUNDS     =           0.2739
      STREAM LEAKAGE     =   468736288.0000        STREAM LEAKAGE     =          10.9173
        UZF RECHARGE     =   993594496.0000          UZF RECHARGE     =          20.9661
               GW ET     =           0.0000                 GW ET     =           0.0000
     SURFACE LEAKAGE     =           0.0000       SURFACE LEAKAGE     =           0.0000
    SUPPLEMENTARY WELLS  =           0.0000      SUPPLEMENTARY WELLS  =           0.0000

                TOTAL IN =  1506411264.0000                  TOTAL IN =          36.0551

          OUT:                                     OUT:
          ----                                     ----
             STORAGE     =   949399552.0000               STORAGE     =          19.0003
       CONSTANT HEAD     =           0.0000         CONSTANT HEAD     =           0.0000
               WELLS     =           0.0000                 WELLS     =           0.0000
     HEAD DEP BOUNDS     =    12163974.0000       HEAD DEP BOUNDS     =           0.2995
      STREAM LEAKAGE     =   458027648.0000        STREAM LEAKAGE     =          15.8775
        UZF RECHARGE     =           0.0000          UZF RECHARGE     =           0.0000
               GW ET     =    86630440.0000                 GW ET     =           0.8750
     SURFACE LEAKAGE     =           0.0000       SURFACE LEAKAGE     =           0.0000
    SUPPLEMENTARY WELLS  =       36404.7930      SUPPLEMENTARY WELLS  =           0.0000

               TOTAL OUT =  1506257920.0000                 TOTAL OUT =          36.0523

                IN - OUT =      153344.0000                  IN - OUT =       2.8000E-03

     PERCENT DISCREPANCY =           0.01         PERCENT DISCREPANCY =           0.01






         TIME SUMMARY AT END OF TIME STEP   30 IN STRESS PERIOD   17
                    SECONDS     MINUTES      HOURS       DAYS        YEARS
                    -----------------------------------------------------------
   TIME STEP LENGTH  87600.      1460.0      24.333      1.0139     2.77588E-03
 STRESS PERIOD TIME 2.62800E+06  43800.      730.00      30.417     8.32763E-02
         TOTAL TIME 4.21344E+07 7.02240E+05  11704.      487.67      1.3352    
1
1
                            STRESS PERIOD NO.   18, LENGTH =   2628000.    
                            -----------------------------------------------

                              NUMBER OF TIME STEPS =    30

                               MULTIPLIER FOR DELT =     1.000

                            INITIAL TIME STEP SIZE =   87600.00    

 WELL NO.  LAYER   ROW   COL   STRESS RATE         
 --------------------------------------------------
      1      1      6      4       0.000    
      2      1      6      7       0.000    
      3      1      7      4       0.000    
      4      1      7      5       0.000    
      5      1      8      4       0.000    
      6      1      8      5       0.000    
      7      1      9      4       0.000    
      8      1      9      5       0.000    
      9      1     10      4       0.000    
     10      1     10      5       0.000    

     10 WELLS

 REUSING NON-PARAMETER GHB CELLS FROM LAST STRESS PERIOD

      2 GHB CELLS

 REUSING STREAM SEGMENT DATA FROM LAST STRESS PERIOD



            AREAL INFILTRATION RATE
 READING ON UNIT   19 WITH FORMAT: (10F4.0)            

            1           2           3           4           5           6           7           8           9          10
 ........................................................................................................................
   1    0.000       0.000       0.000       0.000       0.000       0.000       0.000       0.000       0.000       0.000    
   2    0.000       0.000       0.000       0.000       0.000       0.000       0.000       0.000       0.000       0.000    
   3    0.000       0.000       0.000       0.000       0.000       0.000       0.000       0.000       0.000       0.000    
   4    0.000       0.000       0.000       0.000       0.000       0.000       0.000       0.000       0.000       0.000    
   5    0.000       0.000       0.000       0.000       0.000       0.000       0.000       0.000       0.000       0.000    
   6    0.000       0.000       0.000       0.000       0.000       0.000       0.000       0.000       0.000       0.000    
   7    0.000       0.000       0.000       0.000       0.000       0.000       0.000       0.000       0.000       0.000    
   8    0.000       0.000       0.000       0.000       0.000       0.000       0.000       0.000       0.000       0.000    
   9    0.000       0.000       0.000       0.000       0.000       0.000       0.000       0.000       0.000       0.000    
  10    0.000       0.000       0.000       0.000       0.000       0.000       0.000       0.000       0.000       0.000    
  11    0.000       0.000       0.000       0.000       0.000       0.000       0.000       0.000       0.000       0.000    
  12    0.000       0.000       0.000       0.000       0.000       0.000       0.000       0.000       0.000       0.000    
  13    0.000       0.000       0.000       0.000       0.000       0.000       0.000       0.000       0.000       0.000    
  14    0.000       0.000       0.000       0.000       0.000       0.000       0.000       0.000       0.000       0.000    
  15    0.000       0.000       0.000       0.000       0.000       0.000       0.000       0.000       0.000       0.000    

                  ET RATE =  1.000000E-08

 USING ET EXTINCTION DEPTH FROM PREVIOUS STRESS PERIOD. CURRENT PERIOD IS:      18

 USING EXTINCTION WATER CONTENT FROM PREVIOUS STRESS PERIOD. CURRENT PERIOD IS:      18

 PROCESSING AGO STRESS PERIOD DATA

 READING AGO STRESS PERIOD DATA

 READING IRRIGATION STREAM

 READING IRRIGATION WELL

 READING SUPPLEMENTAL WEL

 END PROCESSING AGO STRESS PERIOD DATA OPTIONS
 
 SOLVING FOR HEAD 
                                                   Max.-Head-Change                         Max.-Flux-Residual
  Residual-Control   Outer-Iter.   Inner-Iter.     Column Row Layer    Maximum-Head-Change  Column Row Layer    Maximum-Flux-Residual          L2-NORM 
          0                 1           2             2   13     1      -0.1921347336E-01       2   13    1        -0.1084757366E+01      0.2488751822E+01
          0                 2           2             2    3     1       0.1978875819E-02       4   13    1         0.1049633593E+00      0.3894876403E+00
          0                 3           2             2    3     1       0.8816627945E-03       2    3    1         0.2306947244E-01      0.1205188854E+00
          0                 4           2             2    3     1       0.3923536151E-03       2    3    1         0.1027385682E-01      0.5099894260E-01
          0                 5           2             2    3     1       0.1745265026E-03       2    3    1         0.4571267412E-02      0.2263722070E-01
          0                 6           1             8    2     1       0.7822522863E-04       2    3    1         0.2033262849E-02      0.1011352798E-01
          0                 7           1             8    2     1       0.3515073234E-04       8    2    1         0.9130381636E-03      0.4523153884E-02
          0                 8           1             8    2     1       0.1579506988E-04       8    2    1         0.4102762712E-03      0.2023453001E-02
          0                 9           1             8    2     1       0.7097548892E-05       8    2    1         0.1843586504E-03      0.9053234335E-03

    ------------------------------------------------
       NWT REQUIRED            9 OUTER ITERATIONS 
       AND A TOTAL OF         14 INNER ITERATIONS.
    ------------------------------------------------

 NO OUTPUT CONTROL FOR STRESS PERIOD   18   TIME STEP    1
 
 SOLVING FOR HEAD 
                                                   Max.-Head-Change                         Max.-Flux-Residual
  Residual-Control   Outer-Iter.   Inner-Iter.     Column Row Layer    Maximum-Head-Change  Column Row Layer    Maximum-Flux-Residual          L2-NORM 
          0                 1           2             2   13     1      -0.1775515156E-01       2   13    1        -0.1002295533E+01      0.2353982047E+01
          0                 2           2             2    3     1       0.1969639009E-02       4   13    1         0.9544616105E-01      0.3811778190E+00
          0                 3           2             2    3     1       0.8775753267E-03       2    3    1         0.2296198791E-01      0.1201141226E+00
          0                 4           2             2    3     1       0.3905434385E-03       2    3    1         0.1022627955E-01      0.5090332182E-01
          0                 5           2             8    2     1       0.1739800958E-03       2    3    1         0.4550194999E-02      0.2259656780E-01
          0                 6           1             8    2     1       0.7817852190E-04       8    2    1         0.2030681048E-02      0.1009576959E-01
          0                 7           1             8    2     1       0.3512974502E-04       8    2    1         0.9124930046E-03      0.4515409615E-02
          0                 8           1             8    2     1       0.1578563995E-04       8    2    1         0.4100313132E-03      0.2020025342E-02
          0                 9           1             8    2     1       0.7093311261E-05       8    2    1         0.1842485800E-03      0.9038143480E-03

    ------------------------------------------------
       NWT REQUIRED            9 OUTER ITERATIONS 
       AND A TOTAL OF         14 INNER ITERATIONS.
    ------------------------------------------------

 NO OUTPUT CONTROL FOR STRESS PERIOD   18   TIME STEP    2
 
 SOLVING FOR HEAD 
                                                   Max.-Head-Change                         Max.-Flux-Residual
  Residual-Control   Outer-Iter.   Inner-Iter.     Column Row Layer    Maximum-Head-Change  Column Row Layer    Maximum-Flux-Residual          L2-NORM 
          0                 1           2             2   13     1      -0.1640938487E-01       2   13    1        -0.9262022405E+00      0.2234138059E+01
          0                 2           2             2    3     1       0.1960693263E-02       2   13    1         0.8809940201E-01      0.3740006305E+00
          0                 3           2             2    3     1       0.8736165514E-03       2    3    1         0.2285788989E-01      0.1197492178E+00
          0                 4           2             2    3     1       0.3887902043E-03       2    3    1         0.1018019999E-01      0.5081167379E-01
          0                 5           2             8    2     1       0.1738718109E-03       2    3    1         0.4529785343E-02      0.2255741541E-01
          0                 6           1             8    2     1       0.7812987305E-04       8    2    1         0.2029417201E-02      0.1007860683E-01
          0                 7           1             8    2     1       0.3510788906E-04       8    2    1         0.9119251991E-03      0.4507838109E-02
          0                 8           1             8    2     1       0.1577582059E-04       8    2    1         0.4097762189E-03      0.2016726399E-02
          0                 9           1             8    2     1       0.7088900052E-05       8    2    1         0.1841339795E-03      0.9023633401E-03

    ------------------------------------------------
       NWT REQUIRED            9 OUTER ITERATIONS 
       AND A TOTAL OF         14 INNER ITERATIONS.
    ------------------------------------------------

 NO OUTPUT CONTROL FOR STRESS PERIOD   18   TIME STEP    3
 
 SOLVING FOR HEAD 
                                                   Max.-Head-Change                         Max.-Flux-Residual
  Residual-Control   Outer-Iter.   Inner-Iter.     Column Row Layer    Maximum-Head-Change  Column Row Layer    Maximum-Flux-Residual          L2-NORM 
          0                 1           2             2   13     1      -0.1516754325E-01       2   13    1        -0.8559940379E+00      0.2128019004E+01
          0                 2           2             2    3     1       0.1952028919E-02       2   13    1         0.8143926243E-01      0.3678416922E+00
          0                 3           2             2    3     1       0.8697821855E-03       2    3    1         0.2275706582E-01      0.1194281778E+00
          0                 4           2             2    3     1       0.3870920171E-03       2    3    1         0.1013556827E-01      0.5072802018E-01
          0                 5           2             8    2     1       0.1737684235E-03       8    2    1         0.4513618013E-02      0.2252146372E-01
          0                 6           1             8    2     1       0.7808341542E-04       8    2    1         0.2028210466E-02      0.1006285924E-01
          0                 7           1             8    2     1       0.3508701330E-04       8    2    1         0.9113829518E-03      0.4500913013E-02
          0                 8           1             8    2     1       0.1576644067E-04       8    2    1         0.4095325650E-03      0.2013679912E-02
          0                 9           1             8    2     1       0.7084685181E-05       8    2    1         0.1840244943E-03      0.9010221424E-03

    ------------------------------------------------
       NWT REQUIRED            9 OUTER ITERATIONS 
       AND A TOTAL OF         14 INNER ITERATIONS.
    ------------------------------------------------

 NO OUTPUT CONTROL FOR STRESS PERIOD   18   TIME STEP    4
 
 SOLVING FOR HEAD 
                                                   Max.-Head-Change                         Max.-Flux-Residual
  Residual-Control   Outer-Iter.   Inner-Iter.     Column Row Layer    Maximum-Head-Change  Column Row Layer    Maximum-Flux-Residual          L2-NORM 
          0                 1           2             2   13     1      -0.1402124996E-01       2   13    1        -0.7912006343E+00      0.2034132481E+01
          0                 2           2             2    3     1       0.1943637140E-02       2   13    1         0.7529221714E-01      0.3625292254E+00
          0                 3           2             2    3     1       0.8660683487E-03       2    3    1         0.2265941316E-01      0.1191358617E+00
          0                 4           2             8    2     1       0.3864676597E-03       2    3    1         0.1009233929E-01      0.5064720499E-01
          0                 5           2             8    2     1       0.1736606664E-03       8    2    1         0.4510818778E-02      0.2248653363E-01
          0                 6           1             8    2     1       0.7803500018E-04       8    2    1         0.2026952766E-02      0.1004746475E-01
          0                 7           1             8    2     1       0.3506526114E-04       8    2    1         0.9108178749E-03      0.4494136150E-02
          0                 8           1             8    2     1       0.1575666733E-04       8    2    1         0.4092786763E-03      0.2010691284E-02
          0                 9           1             8    2     1       0.7080293981E-05       8    2    1         0.1839104237E-03      0.8997025913E-03

    ------------------------------------------------
       NWT REQUIRED            9 OUTER ITERATIONS 
       AND A TOTAL OF         14 INNER ITERATIONS.
    ------------------------------------------------

 NO OUTPUT CONTROL FOR STRESS PERIOD   18   TIME STEP    5
 
 SOLVING FOR HEAD 
                                                   Max.-Head-Change                         Max.-Flux-Residual
  Residual-Control   Outer-Iter.   Inner-Iter.     Column Row Layer    Maximum-Head-Change  Column Row Layer    Maximum-Flux-Residual          L2-NORM 
          0                 1           2             2   13     1      -0.1296296984E-01       2   13    1        -0.7313890803E+00      0.1951271032E+01
          0                 2           2             2    3     1       0.1935400207E-02       2   13    1         0.6961801255E-01      0.3579488250E+00
          0                 3           2             2    3     1       0.8624227771E-03       2    3    1         0.2256356062E-01      0.1188672589E+00
          0                 4           2             8    2     1       0.3862285913E-03       2    3    1         0.1004990441E-01      0.5056934915E-01
          0                 5           2             8    2     1       0.1735532655E-03       8    2    1         0.4508028510E-02      0.2245288127E-01
          0                 6           1             8    2     1       0.7798675100E-04       8    2    1         0.2025699244E-02      0.1003270559E-01
          0                 7           1             8    2     1       0.3504358501E-04       8    2    1         0.9102547349E-03      0.4487662175E-02
          0                 8           1             8    2     1       0.1574693001E-04       8    2    1         0.4090256961E-03      0.2007879379E-02
          0                 9           1             8    2     1       0.7075920039E-05       8    2    1         0.1837967749E-03      0.8984587957E-03

    ------------------------------------------------
       NWT REQUIRED            9 OUTER ITERATIONS 
       AND A TOTAL OF         14 INNER ITERATIONS.
    ------------------------------------------------

 NO OUTPUT CONTROL FOR STRESS PERIOD   18   TIME STEP    6
 
 SOLVING FOR HEAD 
                                                   Max.-Head-Change                         Max.-Flux-Residual
  Residual-Control   Outer-Iter.   Inner-Iter.     Column Row Layer    Maximum-Head-Change  Column Row Layer    Maximum-Flux-Residual          L2-NORM 
          0                 1           2             2   13     1      -0.1198591599E-01       2   13    1        -0.6761745685E+00      0.1878250546E+01
          0                 2           2             2    3     1       0.1927420640E-02       2   13    1         0.6437865397E-01      0.3539938331E+00
          0                 3           2             8    2     1       0.8590118297E-03       2    3    1         0.2247070279E-01      0.1186292277E+00
          0                 4           2             8    2     1       0.3860004802E-03       8    2    1         0.1002631704E-01      0.5049949404E-01
          0                 5           2             8    2     1       0.1734507662E-03       8    2    1         0.4505366028E-02      0.2242264544E-01
          0                 6           1             8    2     1       0.7794069481E-04       8    2    1         0.2024502890E-02      0.1001940140E-01
          0                 7           1             8    2     1       0.3502289058E-04       8    2    1         0.9097171675E-03      0.4481791983E-02
          0                 8           1             8    2     1       0.1573763113E-04       8    2    1         0.4087841454E-03      0.2005256073E-02
          0                 9           1             8    2     1       0.7071741684E-05       8    2    1         0.1836882395E-03      0.8973081252E-03

    ------------------------------------------------
       NWT REQUIRED            9 OUTER ITERATIONS 
       AND A TOTAL OF         14 INNER ITERATIONS.
    ------------------------------------------------

 NO OUTPUT CONTROL FOR STRESS PERIOD   18   TIME STEP    7
 
 SOLVING FOR HEAD 
                                                   Max.-Head-Change                         Max.-Flux-Residual
  Residual-Control   Outer-Iter.   Inner-Iter.     Column Row Layer    Maximum-Head-Change  Column Row Layer    Maximum-Flux-Residual          L2-NORM 
          0                 1           2             2   13     1      -0.1108376473E-01       2   13    1        -0.6251987149E+00      0.1813966826E+01
          0                 2           2             2    3     1       0.1919689698E-02       2   13    1         0.5954216972E-01      0.3505556599E+00
          0                 3           2             8    2     1       0.8584824314E-03       2    3    1         0.2238073752E-01      0.1184088325E+00
          0                 4           2             8    2     1       0.3857626286E-03       8    2    1         0.1002013810E-01      0.5043275680E-01
          0                 5           2             8    2     1       0.1733439033E-03       8    2    1         0.4502589914E-02      0.2239375185E-01
          0                 6           1             8    2     1       0.7789268374E-04       8    2    1         0.2023255635E-02      0.1000668642E-01
          0                 7           1             8    2     1       0.3500132050E-04       8    2    1         0.9091568041E-03      0.4476186140E-02
          0                 8           1             8    2     1       0.1572794033E-04       8    2    1         0.4085323883E-03      0.2002781750E-02
          0                 9           1             8    2     1       0.7067387751E-05       8    2    1         0.1835751334E-03      0.8962141791E-03

    ------------------------------------------------
       NWT REQUIRED            9 OUTER ITERATIONS 
       AND A TOTAL OF         14 INNER ITERATIONS.
    ------------------------------------------------

 NO OUTPUT CONTROL FOR STRESS PERIOD   18   TIME STEP    8
 
 SOLVING FOR HEAD 
                                                   Max.-Head-Change                         Max.-Flux-Residual
  Residual-Control   Outer-Iter.   Inner-Iter.     Column Row Layer    Maximum-Head-Change  Column Row Layer    Maximum-Flux-Residual          L2-NORM 
          0                 1           2             2   13     1      -0.1025054548E-01       2   13    1        -0.5781230315E+00      0.1757621263E+01
          0                 2           2             2    3     1       0.1912091415E-02       3    2    1         0.5578514950E-01      0.3475517001E+00
          0                 3           2             8    2     1       0.8579545288E-03       2    3    1         0.2229231513E-01      0.1181783897E+00
          0                 4           2             8    2     1       0.3855254523E-03       8    2    1         0.1001397665E-01      0.5035516253E-01
          0                 5           2             8    2     1       0.1732373455E-03       8    2    1         0.4499821699E-02      0.2235971567E-01
          0                 6           1             8    2     1       0.7784481024E-04       8    2    1         0.2022011942E-02      0.9991628615E-02
          0                 7           1             8    2     1       0.3497981270E-04       8    2    1         0.9085980484E-03      0.4469518882E-02
          0                 8           1             8    2     1       0.1571827729E-04       8    2    1         0.4082813538E-03      0.1999827797E-02
          0                 9           1             8    2     1       0.7063046574E-05       8    2    1         0.1834623525E-03      0.8949050058E-03

    ------------------------------------------------
       NWT REQUIRED            9 OUTER ITERATIONS 
       AND A TOTAL OF         14 INNER ITERATIONS.
    ------------------------------------------------

 NO OUTPUT CONTROL FOR STRESS PERIOD   18   TIME STEP    9
 
 SOLVING FOR HEAD 
                                                   Max.-Head-Change                         Max.-Flux-Residual
  Residual-Control   Outer-Iter.   Inner-Iter.     Column Row Layer    Maximum-Head-Change  Column Row Layer    Maximum-Flux-Residual          L2-NORM 
          0                 1           2             2   13     1      -0.9481040752E-02       2   13    1        -0.5346518040E+00      0.1708203111E+01
          0                 2           2             8    2     1       0.1908132754E-02       3    2    1         0.5567628879E-01      0.3449677748E+00
          0                 3           2             8    2     1       0.8574281334E-03       8    2    1         0.2227157568E-01      0.1179812370E+00
          0                 4           2             8    2     1       0.3852889568E-03       8    2    1         0.1000783279E-01      0.5028914439E-01
          0                 5           2             8    2     1       0.1731310956E-03       8    2    1         0.4497061434E-02      0.2233088786E-01
          0                 6           1             8    2     1       0.7779707529E-04       8    2    1         0.2020771837E-02      0.9978925554E-02
          0                 7           1             8    2     1       0.3495836693E-04       8    2    1         0.9080409128E-03      0.4463917700E-02
          0                 8           1             8    2     1       0.1570864301E-04       8    2    1         0.4080310592E-03      0.1997356384E-02
          0                 9           1             8    2     1       0.7058718402E-05       8    2    1         0.1833499050E-03      0.8938139918E-03

    ------------------------------------------------
       NWT REQUIRED            9 OUTER ITERATIONS 
       AND A TOTAL OF         14 INNER ITERATIONS.
    ------------------------------------------------

 NO OUTPUT CONTROL FOR STRESS PERIOD   18   TIME STEP   10
 
 SOLVING FOR HEAD 
                                                   Max.-Head-Change                         Max.-Flux-Residual
  Residual-Control   Outer-Iter.   Inner-Iter.     Column Row Layer    Maximum-Head-Change  Column Row Layer    Maximum-Flux-Residual          L2-NORM 
          0                 1           2             2   13     1      -0.8770527056E-02       2   13    1        -0.4945103462E+00      0.1665216436E+01
          0                 2           2             8    2     1       0.1906964688E-02       3    2    1         0.5556909275E-01      0.3427632724E+00
          0                 3           2             8    2     1       0.8569034104E-03       8    2    1         0.2225794281E-01      0.1178074682E+00
          0                 4           2             8    2     1       0.3850532404E-03       8    2    1         0.1000170859E-01      0.5022991923E-01
          0                 5           2             8    2     1       0.1730252078E-03       8    2    1         0.4494310319E-02      0.2230503146E-01
          0                 6           1             8    2     1       0.7774950867E-04       8    2    1         0.2019535986E-02      0.9967542077E-02
          0                 7           1             8    2     1       0.3493699969E-04       8    2    1         0.9074857548E-03      0.4458898951E-02
          0                 8           1             8    2     1       0.1569904425E-04       8    2    1         0.4077816747E-03      0.1995140809E-02
          0                 9           1             8    2     1       0.7054406738E-05       8    2    1         0.1832378843E-03      0.8928427062E-03

    ------------------------------------------------
       NWT REQUIRED            9 OUTER ITERATIONS 
       AND A TOTAL OF         14 INNER ITERATIONS.
    ------------------------------------------------

 NO OUTPUT CONTROL FOR STRESS PERIOD   18   TIME STEP   11
 
 SOLVING FOR HEAD 
                                                   Max.-Head-Change                         Max.-Flux-Residual
  Residual-Control   Outer-Iter.   Inner-Iter.     Column Row Layer    Maximum-Head-Change  Column Row Layer    Maximum-Flux-Residual          L2-NORM 
          0                 1           2             2   13     1      -0.8114180560E-02       2   13    1        -0.4574401969E+00      0.1627501678E+01
          0                 2           2             8    2     1       0.1905799964E-02       3    2    1         0.5546511843E-01      0.3408278198E+00
          0                 3           2             8    2     1       0.8563801393E-03       8    2    1         0.2224434871E-01      0.1176455650E+00
          0                 4           2             8    2     1       0.3848181543E-03       8    2    1         0.9995601229E-02      0.5017370001E-01
          0                 5           2             8    2     1       0.1729195932E-03       8    2    1         0.4491566518E-02      0.2228037706E-01
          0                 6           1             8    2     1       0.7770206136E-04       8    2    1         0.2018303319E-02      0.9956638683E-02
          0                 7           1             8    2     1       0.3491568348E-04       8    2    1         0.9069319706E-03      0.4454072564E-02
          0                 8           1             8    2     1       0.1568946850E-04       8    2    1         0.4075328914E-03      0.1993003275E-02
          0                 9           1             8    2     1       0.7050104828E-05       8    2    1         0.1831261176E-03      0.8918881078E-03

    ------------------------------------------------
       NWT REQUIRED            9 OUTER ITERATIONS 
       AND A TOTAL OF         14 INNER ITERATIONS.
    ------------------------------------------------

 NO OUTPUT CONTROL FOR STRESS PERIOD   18   TIME STEP   12
 
 SOLVING FOR HEAD 
                                                   Max.-Head-Change                         Max.-Flux-Residual
  Residual-Control   Outer-Iter.   Inner-Iter.     Column Row Layer    Maximum-Head-Change  Column Row Layer    Maximum-Flux-Residual          L2-NORM 
          0                 1           2             2   13     1      -0.8970854850E-02       2   13    1        -0.5055032623E+00      0.1685707323E+01
          0                 2           2             8    2     1       0.1904690152E-02       3    2    1         0.5536348093E-01      0.3431570475E+00
          0                 3           2             8    2     1       0.8558814922E-03       8    2    1         0.2223139531E-01      0.1175684465E+00
          0                 4           2             8    2     1       0.3845941101E-03       8    2    1         0.9989781173E-02      0.5011605185E-01
          0                 5           2             8    2     1       0.1728189302E-03       8    2    1         0.4488951550E-02      0.2225458393E-01
          0                 6           1             8    2     1       0.7765683403E-04       8    2    1         0.2017128414E-02      0.9945218156E-02
          0                 7           1             8    2     1       0.3489536321E-04       8    2    1         0.9064040882E-03      0.4449010708E-02
          0                 8           1             8    2     1       0.1568033870E-04       8    2    1         0.4072957168E-03      0.1990761282E-02
          0                 9           1             8    2     1       0.7046003007E-05       8    2    1         0.1830195568E-03      0.8908925483E-03

    ------------------------------------------------
       NWT REQUIRED            9 OUTER ITERATIONS 
       AND A TOTAL OF         14 INNER ITERATIONS.
    ------------------------------------------------

 NO OUTPUT CONTROL FOR STRESS PERIOD   18   TIME STEP   13
 
 SOLVING FOR HEAD 
                                                   Max.-Head-Change                         Max.-Flux-Residual
  Residual-Control   Outer-Iter.   Inner-Iter.     Column Row Layer    Maximum-Head-Change  Column Row Layer    Maximum-Flux-Residual          L2-NORM 
          0                 1           2             2   13     1      -0.8593450024E-02       2   13    1        -0.4841354203E+00      0.1663905920E+01
          0                 2           2             5   13     1       0.2831476020E-02       5   13    1         0.1641348529E+00      0.4520377637E+00
          0                 3           2             8    2     1       0.8553611332E-03       8    2    1         0.2221787657E-01      0.1200690352E+00
          0                 4           2             8    2     1       0.3843603386E-03       8    2    1         0.9983707834E-02      0.5009372277E-01
          0                 5           2             8    2     1       0.1727139086E-03       4    6    1         0.5175291427E-02      0.2282839832E-01
          0                 6           1             8    2     1       0.7760965358E-04       8    2    1         0.2015902664E-02      0.9972522475E-02
          0                 7           1             8    2     1       0.3487416780E-04       8    2    1         0.9058534297E-03      0.4447665001E-02
          0                 8           1             8    2     1       0.1567081697E-04       8    2    1         0.4070483387E-03      0.1989390848E-02
          0                 9           1             8    2     1       0.7041725358E-05       8    2    1         0.1829084245E-03      0.8902635239E-03

    ------------------------------------------------
       NWT REQUIRED            9 OUTER ITERATIONS 
       AND A TOTAL OF         14 INNER ITERATIONS.
    ------------------------------------------------

 NO OUTPUT CONTROL FOR STRESS PERIOD   18   TIME STEP   14
 
 SOLVING FOR HEAD 
     PET DIFF ERROR     6    4   -0.2062358566E-08    0.9999999717E-08
     PET DIFF ERROR     6    5   -0.2061830945E-08    0.9999999717E-08
     PET DIFF ERROR     7    4   -0.2061831183E-08    0.9999999717E-08
     PET DIFF ERROR     7    5   -0.2061830075E-08    0.9999999717E-08
     PET DIFF ERROR     8    4   -0.1898796294E-08    0.9999999717E-08
     PET DIFF ERROR     8    5   -0.2061880292E-08    0.9999999717E-08
                                                   Max.-Head-Change                         Max.-Flux-Residual
  Residual-Control   Outer-Iter.   Inner-Iter.     Column Row Layer    Maximum-Head-Change  Column Row Layer    Maximum-Flux-Residual          L2-NORM 
          0                 1           2             2   13     1      -0.8087516399E-02       2   13    1        -0.4555879205E+00      0.1634131870E+01
          0                 2           2             5   13     1       0.2630103775E-02       5   13    1         0.1524456285E+00      0.4373296690E+00
     PET DIFF ERROR     6    4   -0.2592611941E-09    0.9999999717E-08
     PET DIFF ERROR     6    5   -0.2590932464E-09    0.9999999717E-08
     PET DIFF ERROR     7    4   -0.2590931578E-09    0.9999999717E-08
     PET DIFF ERROR     7    5   -0.2590929686E-09    0.9999999717E-08
     PET DIFF ERROR     8    4   -0.2022566668E-09    0.9999999717E-08
     PET DIFF ERROR     8    5   -0.2591089564E-09    0.9999999717E-08
          0                 3           2             4    6     1      -0.6686784872E-01       4    6    1        -0.3687061108E+01      0.3688998576E+01
     PET DIFF ERROR     6    5   -0.2590925773E-09    0.9999999717E-08
     PET DIFF ERROR     7    4   -0.2590924887E-09    0.9999999717E-08
     PET DIFF ERROR     7    5   -0.2590922995E-09    0.9999999717E-08
     PET DIFF ERROR     8    4   -0.2022566668E-09    0.9999999717E-08
     PET DIFF ERROR     8    5   -0.2591082874E-09    0.9999999717E-08
          0                 4           2             4    6     1       0.2628163407E-02       4    6    1         0.1468195159E+00      0.1565803038E+00
     PET DIFF ERROR     6    5   -0.1763290273E-09    0.9999999717E-08
     PET DIFF ERROR     7    4   -0.1763289747E-09    0.9999999717E-08
     PET DIFF ERROR     7    5   -0.1763288628E-09    0.9999999717E-08
     PET DIFF ERROR     8    4   -0.1415149249E-09    0.9999999717E-08
     PET DIFF ERROR     8    5   -0.1763383326E-09    0.9999999717E-08
          0                 5           2             4    6     1       0.2438502338E-03       4    6    1         0.1364266913E-01      0.2607281521E-01
     PET DIFF ERROR     6    5   -0.1145421136E-09    0.9999999717E-08
     PET DIFF ERROR     7    4   -0.1145420869E-09    0.9999999717E-08
     PET DIFF ERROR     7    5   -0.1145420304E-09    0.9999999717E-08
     PET DIFF ERROR     8    4   -0.9710337125E-10    0.9999999717E-08
     PET DIFF ERROR     8    5   -0.1145468164E-09    0.9999999717E-08
          0                 6           2             4    6     1       0.6515226080E-01       4    6    1         0.3624905382E+01      0.3624918829E+01
     PET DIFF ERROR     6    5   -0.1029251592E-09    0.9999999717E-08
     PET DIFF ERROR     7    4   -0.1029251140E-09    0.9999999717E-08
     PET DIFF ERROR     7    5   -0.1029250192E-09    0.9999999717E-08
     PET DIFF ERROR     8    5   -0.1029330772E-09    0.9999999717E-08
          0                 7           2             4    6     1      -0.1039391334E-02       4    6    1        -0.5904238355E-01      0.6433862924E-01
     PET DIFF ERROR     6    5   -0.9023744308E-10    0.9999999717E-08
     PET DIFF ERROR     7    4   -0.9023736485E-10    0.9999999717E-08
     PET DIFF ERROR     7    5   -0.9023720108E-10    0.9999999717E-08
     PET DIFF ERROR     8    5   -0.9025112787E-10    0.9999999717E-08
          0                 8           2             4    6     1      -0.1687043090E-03       4    6    1        -0.9600685752E-02      0.1109722838E-01
          0                 9           1             3    6     1       0.5572484953E-04       4    6    1        -0.1976909098E-02      0.2782102660E-02
          0                10           1             3    6     1       0.2482540084E-04       3    6    1         0.6736675568E-03      0.1043719799E-02
                                                   Max.-Head-Change                         Max.-Flux-Residual
  Residual-Control   Outer-Iter.   Inner-Iter.     Column Row Layer    Maximum-Head-Change  Column Row Layer    Maximum-Flux-Residual          L2-NORM 
          0                11           1             3    6     1       0.1112907729E-04       5   13    1        -0.3492235128E-03      0.7325365134E-03
          0                12           1             4    6     1       0.1173127349E-04       4    6    1         0.6633901255E-03      0.8908942848E-03
          0                13           1             4    6     1       0.5959705845E-05       4    6    1         0.3370027175E-03      0.6405842047E-03

    ------------------------------------------------
       NWT REQUIRED           13 OUTER ITERATIONS 
       AND A TOTAL OF         21 INNER ITERATIONS.
    ------------------------------------------------

 NO OUTPUT CONTROL FOR STRESS PERIOD   18   TIME STEP   15
 
 SOLVING FOR HEAD 
     PET DIFF ERROR     6    4   -0.3707209455E-08    0.9999999717E-08
     PET DIFF ERROR     6    5   -0.4276929657E-08    0.9999999717E-08
     PET DIFF ERROR     7    4   -0.4276979999E-08    0.9999999717E-08
     PET DIFF ERROR     7    5   -0.4276929105E-08    0.9999999717E-08
     PET DIFF ERROR     8    4   -0.4100944911E-08    0.9999999717E-08
     PET DIFF ERROR     8    5   -0.4276975834E-08    0.9999999717E-08
                                                   Max.-Head-Change                         Max.-Flux-Residual
  Residual-Control   Outer-Iter.   Inner-Iter.     Column Row Layer    Maximum-Head-Change  Column Row Layer    Maximum-Flux-Residual          L2-NORM 
          0                 1           2             2   13     1      -0.7605353230E-02       2   13    1        -0.4283833980E+00      0.1607454910E+01
          0                 2           2             5   13     1       0.2291685629E-02       5   13    1         0.1327876786E+00      0.4150951365E+00
     PET DIFF ERROR     6    4   -0.2129249747E-08    0.9999999717E-08
     PET DIFF ERROR     6    5   -0.2141434740E-08    0.9999999717E-08
     PET DIFF ERROR     7    4   -0.2141434683E-08    0.9999999717E-08
     PET DIFF ERROR     7    5   -0.2141434553E-08    0.9999999717E-08
     PET DIFF ERROR     8    4   -0.2098660397E-08    0.9999999717E-08
     PET DIFF ERROR     8    5   -0.2141445349E-08    0.9999999717E-08
          0                 3           2             4    6     1      -0.5692638307E-01       4    6    1        -0.3138957184E+01      0.3141205804E+01
     PET DIFF ERROR     6    5   -0.2141431559E-08    0.9999999717E-08
     PET DIFF ERROR     7    4   -0.2141431503E-08    0.9999999717E-08
     PET DIFF ERROR     7    5   -0.2141431372E-08    0.9999999717E-08
     PET DIFF ERROR     8    4   -0.2098660397E-08    0.9999999717E-08
     PET DIFF ERROR     8    5   -0.2141442168E-08    0.9999999717E-08
          0                 4           2             4    6     1       0.7032706166E-02       4    6    1         0.3917768649E+00      0.3956767079E+00
          0                 5           2             4    6     1       0.5012166273E-01       4    6    1         0.2788673440E+01      0.2788794348E+01
          0                 6           2             3    6     1       0.2391970258E-03       5    6    1         0.1122377886E-01      0.2217050714E-01
          0                 7           1             3    6     1       0.1045189459E-03       3    6    1         0.2776988735E-02      0.6158486292E-02
          0                 8           1             3    6     1       0.4571656531E-04       3    6    1         0.1213790351E-02      0.2393284023E-02
          0                 9           1             3    6     1       0.2000527386E-04       3    6    1         0.5309770561E-03      0.1039788629E-02
          0                10           1             3    6     1       0.8756286082E-05       3    6    1         0.2323659359E-03      0.4612836255E-03

    ------------------------------------------------
       NWT REQUIRED           10 OUTER ITERATIONS 
       AND A TOTAL OF         16 INNER ITERATIONS.
    ------------------------------------------------

 NO OUTPUT CONTROL FOR STRESS PERIOD   18   TIME STEP   16
 
 SOLVING FOR HEAD 
                                                   Max.-Head-Change                         Max.-Flux-Residual
  Residual-Control   Outer-Iter.   Inner-Iter.     Column Row Layer    Maximum-Head-Change  Column Row Layer    Maximum-Flux-Residual          L2-NORM 
          0                 1           2             2   13     1      -0.7127434584E-02       2   13    1        -0.4014185316E+00      0.1581665285E+01
          0                 2           2             5   13     1       0.2746793970E-02       5   13    1         0.1592667178E+00      0.4424523975E+00
     PET DIFF ERROR     6    4   -0.5356958950E-08    0.9999999717E-08
     PET DIFF ERROR     6    5   -0.4987101689E-08    0.9999999717E-08
     PET DIFF ERROR     7    5   -0.4991639783E-08    0.9999999717E-08
     PET DIFF ERROR     8    4   -0.5309841213E-08    0.9999999717E-08
     PET DIFF ERROR     8    5   -0.4992370085E-08    0.9999999717E-08
          0                 3           2             4    6     1      -0.7242912810E-01       4    6    1        -0.3993676468E+01      0.3995463398E+01
     PET DIFF ERROR     6    5   -0.4987385345E-08    0.9999999717E-08
     PET DIFF ERROR     7    5   -0.4991922518E-08    0.9999999717E-08
     PET DIFF ERROR     8    4   -0.5309841213E-08    0.9999999717E-08
     PET DIFF ERROR     8    5   -0.4992652631E-08    0.9999999717E-08
          0                 4           2             4    6     1       0.2706901658E-01       4    6    1         0.1506726726E+01      0.1509549525E+01
          0                 5           2             4    6     1       0.4522500445E-01       4    6    1         0.2516059932E+01      0.2516816514E+01
          0                 6           2             3    6     1       0.2467863582E-03       4    6    1         0.1244733778E-01      0.2500951694E-01
          0                 7           1             3    6     1       0.1110028570E-03       3    6    1         0.2991536566E-02      0.6643819790E-02
          0                 8           1             3    6     1       0.4978991630E-04       3    6    1         0.1344416323E-02      0.2501626567E-02
          0                 9           1             3    6     1       0.2230790352E-04       3    6    1         0.6028144015E-03      0.1081445664E-02
          0                10           1             3    6     1       0.9990356267E-05       3    6    1         0.2700427614E-03      0.4814898252E-03

    ------------------------------------------------
       NWT REQUIRED           10 OUTER ITERATIONS 
       AND A TOTAL OF         16 INNER ITERATIONS.
    ------------------------------------------------

 NO OUTPUT CONTROL FOR STRESS PERIOD   18   TIME STEP   17
 
 SOLVING FOR HEAD 
                                                   Max.-Head-Change                         Max.-Flux-Residual
  Residual-Control   Outer-Iter.   Inner-Iter.     Column Row Layer    Maximum-Head-Change  Column Row Layer    Maximum-Flux-Residual          L2-NORM 
          0                 1           2             2   13     1      -0.6651659977E-02       2   13    1        -0.3745725524E+00      0.1556944707E+01
          0                 2           2             5   13     1       0.2714394941E-02       5   13    1         0.1574027775E+00      0.4392037105E+00
          0                 3           2             8    2     1       0.8532688950E-03       8    2    1         0.2216351922E-01      0.1193065738E+00
          0                 4           2             8    2     1       0.3834204353E-03       8    2    1         0.9959288565E-02      0.4985169304E-01
          0                 5           2             8    2     1       0.1722916764E-03       4    6    1         0.8681498977E-02      0.2378025170E-01
          0                 6           1             8    2     1       0.7741997537E-04       8    2    1         0.2010974650E-02      0.1007769936E-01
          0                 7           1             8    2     1       0.3478895972E-04       8    2    1         0.9036396341E-03      0.4440325649E-02
          0                 8           1             8    2     1       0.1563253972E-04       8    2    1         0.4060538498E-03      0.1982195226E-02
          0                 9           1             8    2     1       0.7024530724E-05       8    2    1         0.1824616804E-03      0.8868449533E-03

    ------------------------------------------------
       NWT REQUIRED            9 OUTER ITERATIONS 
       AND A TOTAL OF         14 INNER ITERATIONS.
    ------------------------------------------------

 NO OUTPUT CONTROL FOR STRESS PERIOD   18   TIME STEP   18
 
 SOLVING FOR HEAD 
     PET DIFF ERROR     6    4   -0.4554605423E-08    0.9999999717E-08
                                                   Max.-Head-Change                         Max.-Flux-Residual
  Residual-Control   Outer-Iter.   Inner-Iter.     Column Row Layer    Maximum-Head-Change  Column Row Layer    Maximum-Flux-Residual          L2-NORM 
          0                 1           2             2   13     1      -0.6292782685E-02       2   13    1        -0.3543286712E+00      0.1539507301E+01
          0                 2           2             5   13     1       0.2052664345E-02       5   13    1         0.1189435982E+00      0.3980967149E+00
          0                 3           2             8    2     1       0.8527563062E-03       8    2    1         0.2215020241E-01      0.1181942794E+00
          0                 4           2             8    2     1       0.3831901540E-03       8    2    1         0.9953305915E-02      0.4981168452E-01
          0                 5           2             8    2     1       0.1721882222E-03       8    2    1         0.4472565445E-02      0.2211219875E-01
          0                 6           1             8    2     1       0.7737349873E-04       8    2    1         0.2009767190E-02      0.9882510295E-02
          0                 7           1             8    2     1       0.3476808070E-04       8    2    1         0.9030971906E-03      0.4421414336E-02
          0                 8           1             8    2     1       0.1562315981E-04       8    2    1         0.4058101595E-03      0.1978598943E-02
          0                 9           1             8    2     1       0.7020316853E-05       8    2    1         0.1823522083E-03      0.8855272351E-03

    ------------------------------------------------
       NWT REQUIRED            9 OUTER ITERATIONS 
       AND A TOTAL OF         14 INNER ITERATIONS.
    ------------------------------------------------

 NO OUTPUT CONTROL FOR STRESS PERIOD   18   TIME STEP   19
 
 SOLVING FOR HEAD 
                                                   Max.-Head-Change                         Max.-Flux-Residual
  Residual-Control   Outer-Iter.   Inner-Iter.     Column Row Layer    Maximum-Head-Change  Column Row Layer    Maximum-Flux-Residual          L2-NORM 
          0                 1           2             3    2     1       0.6031330751E-02       2   13    1        -0.3335639995E+00      0.1522239308E+01
          0                 2           2             5   13     1       0.2676350093E-02       5   13    1         0.1552216886E+00      0.4345874704E+00
     PET DIFF ERROR     6    4   -0.5193536600E-08    0.9999999717E-08
          0                 3           2             4    6     1      -0.7242906639E-01       4    6    1        -0.3993679565E+01      0.3995449407E+01
          0                 4           2             4    6     1       0.2958750192E-01       4    6    1         0.1646853902E+01      0.1649818895E+01
          0                 5           2             4    6     1       0.4250550715E-01       4    6    1         0.2364730642E+01      0.2365751470E+01
          0                 6           2             4    6     1       0.3984579153E-03       4    6    1         0.2168131658E-01      0.3024448302E-01
          0                 7           1             3    6     1       0.1088362182E-03       4    6    1         0.3948650088E-02      0.7299589704E-02
          0                 8           1             3    6     1       0.4888772476E-04       3    6    1         0.1318754283E-02      0.2547459854E-02
          0                 9           1             3    6     1       0.2191666813E-04       3    6    1         0.5919969907E-03      0.1078212345E-02
          0                10           1             3    6     1       0.9817752058E-05       3    6    1         0.2653269652E-03      0.4781813190E-03

    ------------------------------------------------
       NWT REQUIRED           10 OUTER ITERATIONS 
       AND A TOTAL OF         16 INNER ITERATIONS.
    ------------------------------------------------

 NO OUTPUT CONTROL FOR STRESS PERIOD   18   TIME STEP   20
 
 SOLVING FOR HEAD 
                                                   Max.-Head-Change                         Max.-Flux-Residual
  Residual-Control   Outer-Iter.   Inner-Iter.     Column Row Layer    Maximum-Head-Change  Column Row Layer    Maximum-Flux-Residual          L2-NORM 
          0                 1           2             3    2     1       0.6021773482E-02       3    2    1         0.3130499475E+00      0.1504350895E+01
          0                 2           2             5   13     1       0.2648851289E-02       5   13    1         0.1536357114E+00      0.4320130932E+00
          0                 3           2             8    2     1       0.8517351033E-03       8    2    1         0.2212367026E-01      0.1187469342E+00
          0                 4           2             8    2     1       0.3827314126E-03       8    2    1         0.9941387172E-02      0.4972146556E-01
          0                 5           2             8    2     1       0.1719821492E-03       4    6    1         0.5068653526E-02      0.2264774357E-01
          0                 6           1             8    2     1       0.7728092864E-04       8    2    1         0.2007362064E-02      0.9900516356E-02
          0                 7           1             8    2     1       0.3472649723E-04       8    2    1         0.9020167807E-03      0.4416360898E-02
          0                 8           1             8    2     1       0.1560448027E-04       8    2    1         0.4053248322E-03      0.1975579748E-02
          0                 9           1             8    2     1       0.7011926128E-05       8    2    1         0.1821341962E-03      0.8841730076E-03

    ------------------------------------------------
       NWT REQUIRED            9 OUTER ITERATIONS 
       AND A TOTAL OF         14 INNER ITERATIONS.
    ------------------------------------------------

 NO OUTPUT CONTROL FOR STRESS PERIOD   18   TIME STEP   21
 
 SOLVING FOR HEAD 
     PET DIFF ERROR     6    4   -0.1939724912E-08    0.9999999717E-08
     PET DIFF ERROR     6    5   -0.2305562833E-08    0.9999999717E-08
     PET DIFF ERROR     7    4   -0.2305563690E-08    0.9999999717E-08
     PET DIFF ERROR     7    5   -0.2305562169E-08    0.9999999717E-08
     PET DIFF ERROR     8    4   -0.2147669695E-08    0.9999999717E-08
     PET DIFF ERROR     8    5   -0.2305600923E-08    0.9999999717E-08
                                                   Max.-Head-Change                         Max.-Flux-Residual
  Residual-Control   Outer-Iter.   Inner-Iter.     Column Row Layer    Maximum-Head-Change  Column Row Layer    Maximum-Flux-Residual          L2-NORM 
          0                 1           2             3    2     1       0.6012328331E-02       3    2    1         0.3125519763E+00      0.1492640301E+01
          0                 2           2             5   13     1       0.2442540028E-02       5   13    1         0.1416521805E+00      0.4181440350E+00
     PET DIFF ERROR     6    4   -0.1114060540E-09    0.9999999717E-08
     PET DIFF ERROR     6    5   -0.2090161469E-09    0.9999999717E-08
     PET DIFF ERROR     7    4   -0.2090160677E-09    0.9999999717E-08
     PET DIFF ERROR     7    5   -0.2090158967E-09    0.9999999717E-08
     PET DIFF ERROR     8    4   -0.1563948297E-09    0.9999999717E-08
     PET DIFF ERROR     8    5   -0.2090303828E-09    0.9999999717E-08
          0                 3           2             4    6     1      -0.6621602282E-01       4    6    1        -0.3651137262E+01      0.3653052512E+01
     PET DIFF ERROR     6    5   -0.2090152529E-09    0.9999999717E-08
     PET DIFF ERROR     7    4   -0.2090151738E-09    0.9999999717E-08
     PET DIFF ERROR     7    5   -0.2090150028E-09    0.9999999717E-08
     PET DIFF ERROR     8    4   -0.1563948297E-09    0.9999999717E-08
     PET DIFF ERROR     8    5   -0.2090294888E-09    0.9999999717E-08
          0                 4           2             4    6     1       0.2419624138E-02       4    6    1         0.1352105070E+00      0.1455921007E+00
     PET DIFF ERROR     6    5   -0.1521712536E-09    0.9999999717E-08
     PET DIFF ERROR     7    4   -0.1521711997E-09    0.9999999717E-08
     PET DIFF ERROR     7    5   -0.1521710839E-09    0.9999999717E-08
     PET DIFF ERROR     8    4   -0.1056149718E-09    0.9999999717E-08
     PET DIFF ERROR     8    5   -0.1521809088E-09    0.9999999717E-08
          0                 5           2             8    2     1       0.1718749984E-03       4    6    1         0.9420791445E-02      0.2397662209E-01
     PET DIFF ERROR     6    5   -0.1068040299E-09    0.9999999717E-08
     PET DIFF ERROR     7    4   -0.1068039957E-09    0.9999999717E-08
     PET DIFF ERROR     7    5   -0.1068039224E-09    0.9999999717E-08
     PET DIFF ERROR     8    5   -0.1068101463E-09    0.9999999717E-08
          0                 6           2             4    6     1       0.6476468946E-01       4    6    1         0.3603357260E+01      0.3603370568E+01
          0                 7           2             4    6     1      -0.1001701370E-02       4    6    1        -0.5692231630E-01      0.6233464300E-01
          0                 8           2             4    6     1      -0.1827837125E-03       4    6    1        -0.1039079090E-01      0.1177346286E-01
          0                 9           1             3    6     1       0.5541847901E-04       4    6    1        -0.1866434256E-02      0.2697778110E-02
          0                10           1             3    6     1       0.2474236769E-04       3    6    1         0.6699939286E-03      0.9808013837E-03
                                                   Max.-Head-Change                         Max.-Flux-Residual
  Residual-Control   Outer-Iter.   Inner-Iter.     Column Row Layer    Maximum-Head-Change  Column Row Layer    Maximum-Flux-Residual          L2-NORM 
          0                11           1             4    6     1       0.6453563082E-04       4    6    1         0.3653491260E-02      0.3713130581E-02
          0                12           1             3    6     1       0.5218602005E-05       5   13    1        -0.2117739687E-03      0.4019209946E-03

    ------------------------------------------------
       NWT REQUIRED           12 OUTER ITERATIONS 
       AND A TOTAL OF         20 INNER ITERATIONS.
    ------------------------------------------------

 NO OUTPUT CONTROL FOR STRESS PERIOD   18   TIME STEP   22
 
 SOLVING FOR HEAD 
     PET DIFF ERROR     6    4   -0.3435326428E-08    0.9999999717E-08
     PET DIFF ERROR     6    5   -0.4646483501E-08    0.9999999717E-08
     PET DIFF ERROR     7    4   -0.4646614697E-08    0.9999999717E-08
     PET DIFF ERROR     7    5   -0.4646483794E-08    0.9999999717E-08
     PET DIFF ERROR     8    4   -0.4543974502E-08    0.9999999717E-08
     PET DIFF ERROR     8    5   -0.4646505824E-08    0.9999999717E-08
                                                   Max.-Head-Change                         Max.-Flux-Residual
  Residual-Control   Outer-Iter.   Inner-Iter.     Column Row Layer    Maximum-Head-Change  Column Row Layer    Maximum-Flux-Residual          L2-NORM 
          0                 1           2             3    2     1       0.6003168985E-02       3    2    1         0.3120690853E+00      0.1481551682E+01
          0                 2           2             5   13     1       0.2074782879E-02       5   13    1         0.1202830230E+00      0.3959270075E+00
          0                 3           2             4    6     1      -0.5491526529E-01       4    6    1        -0.3028088736E+01      0.3030371608E+01
          0                 4           2             4    6     1       0.3944481827E-02       4    6    1         0.2199329037E+00      0.2262076363E+00
          0                 5           2             4    6     1       0.5128371445E-01       4    6    1         0.2853366032E+01      0.2853458421E+01
          0                 6           2             3    6     1       0.2398132966E-03       5    6    1         0.1138193018E-01      0.2339186943E-01
          0                 7           1             3    6     1       0.1046309141E-03       3    6    1         0.2782986142E-02      0.6264460164E-02
          0                 8           1             3    6     1       0.4573657169E-04       3    6    1         0.1214877798E-02      0.2392234648E-02
          0                 9           1             3    6     1       0.2000868313E-04       3    6    1         0.5311702266E-03      0.1035266206E-02
          0                10           1             3    6     1       0.8756786304E-05       3    6    1         0.2323982957E-03      0.4590560765E-03

    ------------------------------------------------
       NWT REQUIRED           10 OUTER ITERATIONS 
       AND A TOTAL OF         16 INNER ITERATIONS.
    ------------------------------------------------

 NO OUTPUT CONTROL FOR STRESS PERIOD   18   TIME STEP   23
 
 SOLVING FOR HEAD 
                                                   Max.-Head-Change                         Max.-Flux-Residual
  Residual-Control   Outer-Iter.   Inner-Iter.     Column Row Layer    Maximum-Head-Change  Column Row Layer    Maximum-Flux-Residual          L2-NORM 
          0                 1           2             3    2     1       0.5994198952E-02       3    2    1         0.3115962704E+00      0.1470487847E+01
          0                 2           2             5   13     1       0.2610092937E-02       5   13    1         0.1514185291E+00      0.4269059550E+00
          0                 3           2             4    6     1      -0.7242883634E-01       4    6    1        -0.3993675319E+01      0.3995428204E+01
          0                 4           2             4    6     1       0.2501804447E-01       4    6    1         0.1392619652E+01      0.1395372200E+01
          0                 5           2             4    6     1       0.4743873041E-01       4    6    1         0.2639258653E+01      0.2639604791E+01
          0                 6           2             3    6     1       0.2518609178E-03       5    6    1         0.1121093036E-01      0.2255679430E-01
          0                 7           1             3    6     1       0.1129689231E-03       3    6    1         0.3050394950E-02      0.6344371593E-02
          0                 8           1             3    6     1       0.5061469812E-04       3    6    1         0.1367755155E-02      0.2475242567E-02
          0                 9           1             3    6     1       0.2266668833E-04       3    6    1         0.6127134496E-03      0.1080003343E-02
          0                10           1             3    6     1       0.1014882865E-04       3    6    1         0.2743691329E-03      0.4817151367E-03
          0                11           1             3    6     1       0.4543747557E-05       3    6    1         0.1228414974E-03      0.2156723381E-03

    ------------------------------------------------
       NWT REQUIRED           11 OUTER ITERATIONS 
       AND A TOTAL OF         17 INNER ITERATIONS.
    ------------------------------------------------

 NO OUTPUT CONTROL FOR STRESS PERIOD   18   TIME STEP   24
 
 SOLVING FOR HEAD 
                                                   Max.-Head-Change                         Max.-Flux-Residual
  Residual-Control   Outer-Iter.   Inner-Iter.     Column Row Layer    Maximum-Head-Change  Column Row Layer    Maximum-Flux-Residual          L2-NORM 
          0                 1           2             3    2     1       0.5985323981E-02       3    2    1         0.3111285599E+00      0.1459173371E+01
          0                 2           2             5   13     1       0.2592451732E-02       5   13    1         0.1504027205E+00      0.4250345274E+00
          0                 3           2             4    6     1      -0.7242885435E-01       4    6    1        -0.3993678503E+01      0.3995427053E+01
          0                 4           2             4    6     1       0.5870965612E-02       4    6    1         0.3273038732E+00      0.3319823305E+00
          0                 5           2             4    6     1       0.6798791842E-01       4    6    1         0.3782772480E+01      0.3782844785E+01
          0                 6           2             4    6     1      -0.1224612115E-02       4    6    1        -0.6946542748E-01      0.7480680823E-01
     PET DIFF ERROR     6    4   -0.9096568862E-10    0.9999999717E-08
          0                 7           2             4    6     1      -0.2511038724E-03       4    6    1        -0.1423022812E-01      0.1580990839E-01
     PET DIFF ERROR     6    4   -0.1238024330E-09    0.9999999717E-08
          0                 8           1             3    6     1       0.5717794714E-04       4    6    1        -0.2757996458E-02      0.3828346232E-02
     PET DIFF ERROR     6    4   -0.1413443257E-09    0.9999999717E-08
          0                 9           2             4    6     1      -0.6420615435E-01       4    6    1        -0.3604946915E+01      0.3604947145E+01
          0                10           2             4    6     1       0.6432761649E-01       4    6    1         0.3645455471E+01      0.3645539635E+01
     PET DIFF ERROR     6    4   -0.1475485701E-09    0.9999999717E-08
     PET DIFF ERROR     6    5   -0.8295248685E-10    0.9999999717E-08
     PET DIFF ERROR     7    4   -0.8295248960E-10    0.9999999717E-08
     PET DIFF ERROR     7    5   -0.8295249534E-10    0.9999999717E-08
     PET DIFF ERROR     8    4   -0.8477821522E-10    0.9999999717E-08
     PET DIFF ERROR     8    5   -0.8295200370E-10    0.9999999717E-08
                                                   Max.-Head-Change                         Max.-Flux-Residual
  Residual-Control   Outer-Iter.   Inner-Iter.     Column Row Layer    Maximum-Head-Change  Column Row Layer    Maximum-Flux-Residual          L2-NORM 
          0                11           2             5    6     1       0.2038050785E-03       5    6    1         0.1176705140E-01      0.2067208215E-01
     PET DIFF ERROR     6    4   -0.1211555953E-09    0.9999999717E-08
     PET DIFF ERROR     6    5   -0.1036423606E-09    0.9999999717E-08
     PET DIFF ERROR     7    4   -0.1036423626E-09    0.9999999717E-08
     PET DIFF ERROR     7    5   -0.1036423669E-09    0.9999999717E-08
     PET DIFF ERROR     8    4   -0.1048755303E-09    0.9999999717E-08
     PET DIFF ERROR     8    5   -0.1036419985E-09    0.9999999717E-08
          0                12           2             4    6     1      -0.6248115562E-01       4    6    1        -0.3572614118E+01      0.3572616575E+01
     PET DIFF ERROR     6    5   -0.1294745664E-09    0.9999999717E-08
     PET DIFF ERROR     7    4   -0.1294745667E-09    0.9999999717E-08
     PET DIFF ERROR     7    5   -0.1294745670E-09    0.9999999717E-08
     PET DIFF ERROR     8    4   -0.1292083704E-09    0.9999999717E-08
     PET DIFF ERROR     8    5   -0.1294745335E-09    0.9999999717E-08
          0                13           2             4    6     1      -0.3537377902E-03       4    6    1        -0.1959461663E-01      0.3040485970E-01
     PET DIFF ERROR     6    5   -0.1572430555E-09    0.9999999717E-08
     PET DIFF ERROR     7    4   -0.1572430517E-09    0.9999999717E-08
     PET DIFF ERROR     7    5   -0.1572430436E-09    0.9999999717E-08
     PET DIFF ERROR     8    4   -0.1538621249E-09    0.9999999717E-08
     PET DIFF ERROR     8    5   -0.1572437322E-09    0.9999999717E-08
          0                14           2             4    6     1       0.2420844842E-03       4    6    1         0.1411211938E-01      0.1517486685E-01
     PET DIFF ERROR     6    5   -0.1775164237E-09    0.9999999717E-08
     PET DIFF ERROR     7    4   -0.1775164134E-09    0.9999999717E-08
     PET DIFF ERROR     7    5   -0.1775163914E-09    0.9999999717E-08
     PET DIFF ERROR     8    4   -0.1691743832E-09    0.9999999717E-08
     PET DIFF ERROR     8    5   -0.1775182572E-09    0.9999999717E-08
          0                15           2             4    6     1       0.2649140068E-03       4    6    1         0.1531837808E-01      0.1543065440E-01
     PET DIFF ERROR     6    5   -0.1804857416E-09    0.9999999717E-08
     PET DIFF ERROR     7    4   -0.1804857201E-09    0.9999999717E-08
     PET DIFF ERROR     7    5   -0.1804856745E-09    0.9999999717E-08
     PET DIFF ERROR     8    4   -0.1637948164E-09    0.9999999717E-08
     PET DIFF ERROR     8    5   -0.1804895605E-09    0.9999999717E-08
          0                16           2             4    6     1       0.2990754034E-03       4    6    1         0.1726307680E-01      0.1730120558E-01
     PET DIFF ERROR     6    5   -0.1409510687E-09    0.9999999717E-08
     PET DIFF ERROR     7    4   -0.1409510316E-09    0.9999999717E-08
     PET DIFF ERROR     7    5   -0.1409509535E-09    0.9999999717E-08
     PET DIFF ERROR     8    4   -0.1129468388E-09    0.9999999717E-08
     PET DIFF ERROR     8    5   -0.1409576262E-09    0.9999999717E-08
          0                17           2             4    6     1       0.3001458262E-03       4    6    1         0.1731721911E-01      0.1734590220E-01
          0                18           2             4    6     1       0.6061008693E-01       4    6    1         0.3496978485E+01      0.3496978561E+01
          0                19           2             4    6     1       0.1064627193E-02       4    6    1         0.6078657119E-01      0.6517250954E-01
          0                20           2             4    6     1       0.2222473463E-03       4    6    1         0.1266355907E-01      0.1407359799E-01
                                                   Max.-Head-Change                         Max.-Flux-Residual
  Residual-Control   Outer-Iter.   Inner-Iter.     Column Row Layer    Maximum-Head-Change  Column Row Layer    Maximum-Flux-Residual          L2-NORM 
          0                21           1             3    6     1       0.6108659778E-04       4    6    1         0.2644549633E-02      0.3336625135E-02
          0                22           1             3    6     1       0.2856743118E-04       3    6    1         0.8007015839E-03      0.1005730244E-02
          0                23           1             3    6     1       0.1333462054E-04       3    6    1         0.3743265347E-03      0.3969754022E-03
          0                24           1             3    6     1       0.6219262655E-05       3    6    1         0.1746997586E-03      0.1774887096E-03

    ------------------------------------------------
       NWT REQUIRED           24 OUTER ITERATIONS 
       AND A TOTAL OF         43 INNER ITERATIONS.
    ------------------------------------------------

 NO OUTPUT CONTROL FOR STRESS PERIOD   18   TIME STEP   25
 
 SOLVING FOR HEAD 
                                                   Max.-Head-Change                         Max.-Flux-Residual
  Residual-Control   Outer-Iter.   Inner-Iter.     Column Row Layer    Maximum-Head-Change  Column Row Layer    Maximum-Flux-Residual          L2-NORM 
          0                 1           2             3    2     1       0.5976628526E-02       3    2    1         0.3106703756E+00      0.1450514852E+01
          0                 2           2             5   13     1       0.2308059318E-02       5   13    1         0.1338762858E+00      0.4069358705E+00
          0                 3           2             4    6     1      -0.6367337297E-01       4    6    1        -0.3510959544E+01      0.3512929347E+01
          0                 4           2             4    6     1       0.1171589599E-01       4    6    1         0.6524163020E+00      0.6552621169E+00
     PET DIFF ERROR     6    5   -0.5780354158E-09    0.9999999717E-08
     PET DIFF ERROR     7    4   -0.5780353992E-09    0.9999999717E-08
     PET DIFF ERROR     7    5   -0.5780353638E-09    0.9999999717E-08
     PET DIFF ERROR     8    4   -0.5645802449E-09    0.9999999717E-08
     PET DIFF ERROR     8    5   -0.5780383799E-09    0.9999999717E-08
          0                 5           2             4    6     1       0.7445713863E-02       4    6    1         0.4142416976E+00      0.4155054378E+00
          0                 6           2             4    6     1       0.4431005775E-01       4    6    1         0.2465224947E+01      0.2465246714E+01
          0                 7           2             4    6     1       0.2878522868E-03       4    6    1         0.1553056474E-01      0.2406198384E-01
          0                 8           1             3    6     1       0.1020723848E-03       4    6    1         0.2863016642E-02      0.5389656711E-02
          0                 9           1             3    6     1       0.4573799785E-04       3    6    1         0.1236100947E-02      0.1707280378E-02
          0                10           1             3    6     1       0.2046439512E-04       3    6    1         0.5536244397E-03      0.6976497962E-03
          0                11           1             3    6     1       0.9150997780E-05       3    6    1         0.2476564725E-03      0.3070383711E-03

    ------------------------------------------------
       NWT REQUIRED           11 OUTER ITERATIONS 
       AND A TOTAL OF         18 INNER ITERATIONS.
    ------------------------------------------------

 NO OUTPUT CONTROL FOR STRESS PERIOD   18   TIME STEP   26
 
 SOLVING FOR HEAD 
                                                   Max.-Head-Change                         Max.-Flux-Residual
  Residual-Control   Outer-Iter.   Inner-Iter.     Column Row Layer    Maximum-Head-Change  Column Row Layer    Maximum-Flux-Residual          L2-NORM 
          0                 1           2             3    2     1       0.5968197358E-02       3    2    1         0.3102260812E+00      0.1442140531E+01
          0                 2           2             5   13     1       0.2570572416E-02       5   13    1         0.1491515872E+00      0.4222023846E+00
     PET DIFF ERROR     6    4   -0.3259954495E-08    0.9999999717E-08
          0                 3           2             4    6     1      -0.7242888668E-01       4    6    1        -0.3993684627E+01      0.3995426080E+01
          0                 4           2             4    6     1       0.1651371470E-01       4    6    1         0.9194525504E+00      0.9220351810E+00
     PET DIFF ERROR     6    5   -0.3581926061E-09    0.9999999717E-08
     PET DIFF ERROR     7    4   -0.3581925486E-09    0.9999999717E-08
     PET DIFF ERROR     7    5   -0.3581924270E-09    0.9999999717E-08
     PET DIFF ERROR     8    4   -0.3153619087E-09    0.9999999717E-08
     PET DIFF ERROR     8    5   -0.3582028721E-09    0.9999999717E-08
          0                 5           2             4    6     1       0.1088460028E-01       4    6    1         0.6055442598E+00      0.6069473188E+00
          0                 6           2             4    6     1       0.4487058236E-01       4    6    1         0.2496370667E+01      0.2496394126E+01
          0                 7           2             4    6     1       0.2533347393E-03       4    6    1         0.1359570823E-01      0.2327875473E-01
          0                 8           1             3    6     1       0.1064909163E-03       3    6    1         0.2872714096E-02      0.5323581218E-02
          0                 9           1             3    6     1       0.4769641684E-04       3    6    1         0.1289438373E-02      0.1732725970E-02
          0                10           1             3    6     1       0.2133606963E-04       3    6    1         0.5772955309E-03      0.7155396136E-03
          0                11           1             3    6     1       0.9539630149E-05       3    6    1         0.2581975759E-03      0.3155785687E-03

    ------------------------------------------------
       NWT REQUIRED           11 OUTER ITERATIONS 
       AND A TOTAL OF         18 INNER ITERATIONS.
    ------------------------------------------------

 NO OUTPUT CONTROL FOR STRESS PERIOD   18   TIME STEP   27
 
 SOLVING FOR HEAD 
                                                   Max.-Head-Change                         Max.-Flux-Residual
  Residual-Control   Outer-Iter.   Inner-Iter.     Column Row Layer    Maximum-Head-Change  Column Row Layer    Maximum-Flux-Residual          L2-NORM 
          0                 1           2             3    2     1       0.5959845671E-02       3    2    1         0.3097861470E+00      0.1434812840E+01
          0                 2           2             5   13     1       0.2558941297E-02       5   13    1         0.1484834836E+00      0.4208594702E+00
          0                 3           2             4    6     1      -0.7242889917E-01       4    6    1        -0.3993687501E+01      0.3995425393E+01
          0                 4           2             4    6     1       0.6548745698E-02       4    6    1         0.3650152522E+00      0.3692569883E+00
          0                 5           2             4    6     1       0.6725705174E-01       4    6    1         0.3742108059E+01      0.3742184843E+01
     PET DIFF ERROR     6    4   -0.1430564192E-09    0.9999999717E-08
     PET DIFF ERROR     8    4   -0.7801821488E-10    0.9999999717E-08
          0                 6           2             4    6     1      -0.6474990119E-01       4    6    1        -0.3636276244E+01      0.3636380517E+01
     PET DIFF ERROR     6    5   -0.9213331516E-10    0.9999999717E-08
     PET DIFF ERROR     7    4   -0.9213331789E-10    0.9999999717E-08
     PET DIFF ERROR     7    5   -0.9213332345E-10    0.9999999717E-08
     PET DIFF ERROR     8    4   -0.9404560821E-10    0.9999999717E-08
     PET DIFF ERROR     8    5   -0.9213283662E-10    0.9999999717E-08
          0                 7           2             4    6     1       0.6334930440E-01       4    6    1         0.3589992624E+01      0.3590049728E+01
     PET DIFF ERROR     6    4   -0.2231592573E-09    0.9999999717E-08
     PET DIFF ERROR     6    5   -0.9938417993E-10    0.9999999717E-08
     PET DIFF ERROR     7    4   -0.9938418286E-10    0.9999999717E-08
     PET DIFF ERROR     7    5   -0.9938418876E-10    0.9999999717E-08
     PET DIFF ERROR     8    4   -0.1014033370E-09    0.9999999717E-08
     PET DIFF ERROR     8    5   -0.9938367074E-10    0.9999999717E-08
          0                 8           2             4    6     1      -0.6207594382E-01       4    6    1        -0.3550028998E+01      0.3550088498E+01
     PET DIFF ERROR     6    5   -0.1244434946E-09    0.9999999717E-08
     PET DIFF ERROR     7    4   -0.1244434973E-09    0.9999999717E-08
     PET DIFF ERROR     7    5   -0.1244435029E-09    0.9999999717E-08
     PET DIFF ERROR     8    4   -0.1262883599E-09    0.9999999717E-08
     PET DIFF ERROR     8    5   -0.1244430171E-09    0.9999999717E-08
          0                 9           2             4    6     1      -0.3562128812E-03       4    6    1        -0.1983808542E-01      0.2787805767E-01
     PET DIFF ERROR     6    5   -0.1694530836E-09    0.9999999717E-08
     PET DIFF ERROR     7    4   -0.1694530851E-09    0.9999999717E-08
     PET DIFF ERROR     7    5   -0.1694530880E-09    0.9999999717E-08
     PET DIFF ERROR     8    4   -0.1702876260E-09    0.9999999717E-08
     PET DIFF ERROR     8    5   -0.1694528286E-09    0.9999999717E-08
          0                10           2             4    6     1       0.2345027308E-03       4    6    1         0.1365098224E-01      0.1440143298E-01
     PET DIFF ERROR     6    5   -0.2107535981E-09    0.9999999717E-08
     PET DIFF ERROR     7    4   -0.2107535971E-09    0.9999999717E-08
     PET DIFF ERROR     7    5   -0.2107535947E-09    0.9999999717E-08
     PET DIFF ERROR     8    4   -0.2096714858E-09    0.9999999717E-08
     PET DIFF ERROR     8    5   -0.2107537839E-09    0.9999999717E-08
                                                   Max.-Head-Change                         Max.-Flux-Residual
  Residual-Control   Outer-Iter.   Inner-Iter.     Column Row Layer    Maximum-Head-Change  Column Row Layer    Maximum-Flux-Residual          L2-NORM 
          0                11           2             4    6     1       0.2887391041E-03       4    6    1         0.1668702711E-01      0.1676077582E-01
     PET DIFF ERROR     6    5   -0.2611080939E-09    0.9999999717E-08
     PET DIFF ERROR     7    4   -0.2611080868E-09    0.9999999717E-08
     PET DIFF ERROR     7    5   -0.2611080717E-09    0.9999999717E-08
     PET DIFF ERROR     8    4   -0.2554237391E-09    0.9999999717E-08
     PET DIFF ERROR     8    5   -0.2611093637E-09    0.9999999717E-08
          0                12           2             4    6     1       0.3606430372E-03       4    6    1         0.2081373101E-01      0.2085085435E-01
     PET DIFF ERROR     6    5   -0.2901966326E-09    0.9999999717E-08
     PET DIFF ERROR     7    4   -0.2901966136E-09    0.9999999717E-08
     PET DIFF ERROR     7    5   -0.2901965734E-09    0.9999999717E-08
     PET DIFF ERROR     8    4   -0.2756950298E-09    0.9999999717E-08
     PET DIFF ERROR     8    5   -0.2902000188E-09    0.9999999717E-08
          0                13           2             4    6     1       0.4476462216E-03       4    6    1         0.2582698836E-01      0.2586777796E-01
     PET DIFF ERROR     6    5   -0.2339316972E-09    0.9999999717E-08
     PET DIFF ERROR     7    4   -0.2339316602E-09    0.9999999717E-08
     PET DIFF ERROR     7    5   -0.2339315826E-09    0.9999999717E-08
     PET DIFF ERROR     8    4   -0.2063931244E-09    0.9999999717E-08
     PET DIFF ERROR     8    5   -0.2339382641E-09    0.9999999717E-08
          0                14           2             4    6     1       0.4941540853E-03       4    6    1         0.2850728569E-01      0.2855185556E-01
          0                15           2             4    6     1       0.5943764652E-01       4    6    1         0.3429431145E+01      0.3429431372E+01
          0                16           2             4    6     1       0.1063286482E-02       4    6    1         0.6072231551E-01      0.6496273831E-01
          0                17           2             4    6     1       0.2219426508E-03       4    6    1         0.1264886201E-01      0.1402090725E-01
          0                18           1             3    6     1       0.6044285156E-04       4    6    1         0.2641180186E-02      0.3318915942E-02
          0                19           1             3    6     1       0.2826787556E-04       3    6    1         0.7923289355E-03      0.9976026125E-03
          0                20           1             3    6     1       0.1319512399E-04       3    6    1         0.3704312674E-03      0.3930073029E-03
          0                21           1             3    6     1       0.6154236307E-05       3    6    1         0.1728860208E-03      0.1755898667E-03

    ------------------------------------------------
       NWT REQUIRED           21 OUTER ITERATIONS 
       AND A TOTAL OF         38 INNER ITERATIONS.
    ------------------------------------------------

 NO OUTPUT CONTROL FOR STRESS PERIOD   18   TIME STEP   28
 
 SOLVING FOR HEAD 
                                                   Max.-Head-Change                         Max.-Flux-Residual
  Residual-Control   Outer-Iter.   Inner-Iter.     Column Row Layer    Maximum-Head-Change  Column Row Layer    Maximum-Flux-Residual          L2-NORM 
          0                 1           2             3    2     1       0.5951659115E-02       3    2    1         0.3093549161E+00      0.1429242557E+01
          0                 2           2             5   13     1       0.2396288357E-02       5   13    1         0.1390337952E+00      0.4103013769E+00
     PET DIFF ERROR     6    4   -0.3748983050E-08    0.9999999717E-08
          0                 3           2             4    6     1      -0.6746294854E-01       4    6    1        -0.3719898523E+01      0.3721752637E+01
          0                 4           2             4    6     1       0.1980895579E-01       4    6    1         0.1102744786E+01      0.1105367485E+01
          0                 5           2             4    6     1       0.4770427855E-01       4    6    1         0.2654084886E+01      0.2654549091E+01
          0                 6           2             3    6     1       0.2470168909E-03       5    6    1         0.1110114457E-01      0.2223476604E-01
          0                 7           1             3    6     1       0.1107656020E-03       3    6    1         0.2991444174E-02      0.6257561409E-02
          0                 8           1             3    6     1       0.4962392745E-04       3    6    1         0.1341038197E-02      0.2449293228E-02
          0                 9           1             3    6     1       0.2222313744E-04       3    6    1         0.6007165191E-03      0.1069693628E-02
          0                10           1             3    6     1       0.9950597810E-05       3    6    1         0.2690013176E-03      0.4772121933E-03

    ------------------------------------------------
       NWT REQUIRED           10 OUTER ITERATIONS 
       AND A TOTAL OF         16 INNER ITERATIONS.
    ------------------------------------------------

 NO OUTPUT CONTROL FOR STRESS PERIOD   18   TIME STEP   29
 
 SOLVING FOR HEAD 
                                                   Max.-Head-Change                         Max.-Flux-Residual
  Residual-Control   Outer-Iter.   Inner-Iter.     Column Row Layer    Maximum-Head-Change  Column Row Layer    Maximum-Flux-Residual          L2-NORM 
          0                 1           2             2    2     1       0.7677722170E-02       2    2    1         0.3996437959E+00      0.1538041108E+01
          0                 2           2             8    2     1       0.1885186133E-02       2   13    1         0.8811473424E-01      0.3792853503E+00
          0                 3           2             8    2     1       0.8471199603E-03       8    2    1         0.2200375846E-01      0.1177964374E+00
          0                 4           2             8    2     1       0.3806583074E-03       8    2    1         0.9887523006E-02      0.4946289183E-01
          0                 5           2             8    2     1       0.1710509228E-03       8    2    1         0.4443015793E-02      0.2199002609E-01
          0                 6           1             8    2     1       0.7686262942E-04       8    2    1         0.1996493570E-02      0.9800685904E-02
          0                 7           1             8    2     1       0.3453860156E-04       8    2    1         0.8971347462E-03      0.4461379423E-02
          0                 8           1             8    2     1       0.1552008004E-04       8    2    1         0.4031318736E-03      0.1977970954E-02
          0                 9           1             4    6     1       0.9364493167E-05       4    6    1         0.5199058007E-03      0.1025592413E-02

    ------------------------------------------------
       NWT REQUIRED            9 OUTER ITERATIONS 
       AND A TOTAL OF         14 INNER ITERATIONS.
    ------------------------------------------------

 NO OUTPUT CONTROL FOR STRESS PERIOD   18   TIME STEP   30



 STREAM LISTING     PERIOD     18   STEP       30

 LAYER ROW COL. STREAM  RCH.  FLOW INTO     FLOW TO   FLOW OUT OF   OVRLND.     DIRECT     STREAM       STREAM     STREAM     STREAM   STREAMBED  STREAMBED
                SEG.NO.  NO.  STRM. RCH.    AQUIFER    STRM. RCH.    RUNOFF     PRECIP       ET          HEAD       DEPTH      WIDTH   CONDCTNC.   GRADIENT

   1    1    1     1     1    5.4945E+01  3.5407E-01   5.4591E+01  0.000E+00  0.000E+00  0.000E+00  1.09451E+03  1.462E+00  1.763E+01  7.934E-02  1.487E+00
   1    2    2     1     2    5.4591E+01  5.4824E-01   5.4043E+01  0.000E+00  0.000E+00  0.000E+00  1.08952E+03  1.457E+00  1.757E+01  1.230E-01  1.486E+00
   1    3    3     1     3    5.4043E+01  4.6747E-01   5.3575E+01  0.000E+00  0.000E+00  0.000E+00  1.08387E+03  1.450E+00  1.751E+01  1.050E-01  1.483E+00
   1    3    4     1     4    5.3575E+01  4.3039E-01   5.3145E+01  0.000E+00  0.000E+00  0.000E+00  1.07885E+03  1.444E+00  1.745E+01  9.684E-02  1.481E+00
   1    4    5     2     1    5.1145E+01  3.7840E-01   5.0767E+01  0.000E+00  0.000E+00  0.000E+00  1.07379E+03  1.851E+00  1.200E+01  7.800E-02  1.617E+00
   1    5    6     2     2    5.0767E+01  2.9064E-01   5.0476E+01  0.000E+00  0.000E+00  0.000E+00  1.06835E+03  1.844E+00  1.200E+01  6.000E-02  1.615E+00
   1    6    6     2     3    5.0476E+01  2.9025E-01   5.0186E+01  0.000E+00  0.000E+00  0.000E+00  1.06363E+03  1.838E+00  1.200E+01  6.000E-02  1.613E+00
   1    7    6     2     4    5.0186E+01  2.8987E-01   4.9896E+01  0.000E+00  0.000E+00  0.000E+00  1.05891E+03  1.831E+00  1.200E+01  6.000E-02  1.610E+00
   1    8    6     2     5    4.9896E+01  2.8949E-01   4.9606E+01  0.000E+00  0.000E+00  0.000E+00  1.05418E+03  1.825E+00  1.200E+01  6.000E-02  1.608E+00
   1    3    5     3     1    2.0000E+00  2.8252E-01   1.7175E+00  0.000E+00  0.000E+00  0.000E+00  1.07555E+03  1.909E+00  9.636E+00  7.227E-02  1.955E+00
   1    3    6     3     2    1.7175E+00  2.4905E-01   1.4684E+00  0.000E+00  0.000E+00  0.000E+00  1.07264E+03  1.727E+00  8.909E+00  6.682E-02  1.864E+00
   1    3    7     3     3    1.4684E+00  1.9718E-01   1.2712E+00  0.000E+00  0.000E+00  0.000E+00  1.06987E+03  1.555E+00  8.218E+00  5.547E-02  1.777E+00
   1    4    8     3     4    1.2712E+00  2.2567E-01   1.0456E+00  0.000E+00  0.000E+00  0.000E+00  1.06682E+03  1.364E+00  7.455E+00  6.709E-02  1.682E+00
   1    5    8     3     5    1.0456E+00  1.5790E-01   8.8768E-01  0.000E+00  0.000E+00  0.000E+00  1.06362E+03  1.164E+00  6.655E+00  4.991E-02  1.582E+00
   1    6    8     3     6    8.8768E-01  5.5980E-02   8.3170E-01  0.000E+00  0.000E+00  0.000E+00  1.06158E+03  1.036E+00  6.145E+00  1.844E-02  1.518E+00
   1    5   10     4     1    1.0000E+01  9.0919E-02   9.9091E+00  0.000E+00  0.000E+00  0.000E+00  1.07836E+03  6.368E-01  1.000E+01  2.500E-02  1.212E+00
   1    5    9     4     2    9.9091E+00  1.8158E-01   9.7275E+00  0.000E+00  0.000E+00  0.000E+00  1.07154E+03  6.315E-01  1.000E+01  5.000E-02  1.211E+00
   1    6    8     4     3    9.7275E+00  1.2689E-01   9.6006E+00  0.000E+00  0.000E+00  0.000E+00  1.06381E+03  6.256E-01  1.000E+01  3.500E-02  1.209E+00
   1    6    8     5     1    1.0432E+01  2.2686E-01   1.0205E+01  0.000E+00  0.000E+00  0.000E+00  1.05868E+03  6.790E-01  1.542E+01  6.166E-02  1.226E+00
   1    7    7     5     2    1.0205E+01  2.7894E-01   9.9265E+00  0.000E+00  0.000E+00  0.000E+00  1.05417E+03  6.732E-01  1.519E+01  7.594E-02  1.224E+00
   1    8    7     5     3    9.9265E+00  1.9221E-01   9.7343E+00  0.000E+00  0.000E+00  0.000E+00  1.04992E+03  6.676E-01  1.497E+01  5.241E-02  1.223E+00
   1    8    6     5     4    9.7343E+00  1.3577E-01   9.5985E+00  0.000E+00  0.000E+00  0.000E+00  1.04691E+03  6.637E-01  1.482E+01  3.706E-02  1.221E+00
   1    9    6     6     1    5.9183E+01  3.0268E-01   5.8880E+01  0.000E+00  0.000E+00  0.000E+00  1.04477E+03  2.045E+00  1.200E+01  6.000E-02  1.682E+00
   1   10    7     6     2    5.8880E+01  3.0230E-01   5.8578E+01  0.000E+00  0.000E+00  0.000E+00  1.04022E+03  2.038E+00  1.200E+01  6.000E-02  1.679E+00
   1   11    7     6     3    5.8578E+01  3.0193E-01   5.8276E+01  0.000E+00  0.000E+00  0.000E+00  1.03567E+03  2.032E+00  1.200E+01  6.000E-02  1.677E+00
   1   12    7     6     4    5.8276E+01  3.0155E-01   5.7974E+01  0.000E+00  0.000E+00  0.000E+00  1.03112E+03  2.026E+00  1.200E+01  6.000E-02  1.675E+00
   1   13    7     6     5    5.7974E+01  8.4475E-03   5.7966E+01  0.000E+00  0.000E+00  0.000E+00  1.02793E+03  2.023E+00  1.200E+01  2.400E-02  1.173E-01
   1   14    9     7     1    1.5000E+02  1.1622E+00   1.4884E+02  0.000E+00  0.000E+00  0.000E+00  1.03987E+03  2.288E+00  5.530E+01  5.593E-01  6.926E-01
   1   13    8     7     2    1.4884E+02  1.5712E+00   1.4727E+02  0.000E+00  0.000E+00  0.000E+00  1.03478E+03  2.281E+00  5.526E+01  6.149E-01  8.518E-01
   1   13    7     7     3    1.4727E+02  1.1805E+00   1.4609E+02  0.000E+00  0.000E+00  0.000E+00  1.02969E+03  2.274E+00  5.523E+01  5.586E-01  7.044E-01
   1   13    6     8     1    2.0405E+02  7.7408E-01   2.0328E+02  0.000E+00  0.000E+00  0.000E+00  1.02503E+03  3.159E+00  4.581E+01  4.668E-01  5.528E-01
   1   13    5     8     2    2.0328E+02  2.8651E-02   2.0325E+02  0.000E+00  0.000E+00  0.000E+00  1.01878E+03  3.157E+00  4.577E+01  4.665E-01  2.047E-02
   1   13    4     8     3    2.0325E+02 -2.8980E+00   2.0615E+02  0.000E+00  0.000E+00  0.000E+00  1.01254E+03  3.165E+00  4.589E+01  4.677E+00 -2.065E-01
   1   13    3     8     4    2.0615E+02 -3.8210E+00   2.0997E+02  0.000E+00  0.000E+00  0.000E+00  1.00631E+03  3.185E+00  4.618E+01  4.705E+00 -2.707E-01
   1   13    2     8     5    2.0997E+02 -2.2957E+00   2.1226E+02  0.000E+00  0.000E+00  0.000E+00  1.00008E+03  3.202E+00  4.643E+01  4.731E+00 -1.617E-01
   1   13    1     8     6    2.1226E+02 -1.7693E+00   2.1403E+02  0.000E+00  0.000E+00  0.000E+00  9.95089E+02  3.214E+00  4.660E+01  2.849E+00 -2.070E-01
   1    6    8     9     1    2.2344E-02  0.0000E+00   2.2344E-02  0.000E+00  0.000E+00  0.000E+00  1.07851E+03  1.316E-02  4.000E+00  0.000E+00  1.004E+00





UNSATURATED ZONE PACKAGE VOLUMETRIC BUDGET FOR  TIME STEP    30 STRESS PERIOD   18
  ------------------------------------------------------------------------------



     CUMULATIVE VOLUMES      L**3       RATES FOR THIS TIME STEP      L**3/T
     ------------------                 ------------------------

           IN:                                      IN:
           ---                                      ---
        INFILTRATION =    28996886.6666          INFILTRATION =           0.0220

          OUT:                                     OUT:
          ----                                     ----
              UZF ET =   556169459.9910                UZF ET =           1.4881
        UZF RECHARGE =  1047728802.5425          UZF RECHARGE =          20.5251

            IN - OUT = -1574901375.8669              IN - OUT =         -21.9912

          STORAGE:                                 STORAGE:
          --------                                 --------
      STORAGE CHANGE = -1574875887.4000        STORAGE CHANGE =         -21.9912

 PERCENT DISCREPANCY IS DIFFERENCE BETWEEN IN-OUT MINUS CHANGE IN STORAGE
 DIVIDED BY THE AVERAGE OF IN AND OUT TIMES 100

 PERCENT DISCREPANCY =          -0.00     PERCENT DISCREPANCY =           0.00






1
  VOLUMETRIC BUDGET FOR ENTIRE MODEL AT END OF TIME STEP   30, STRESS PERIOD  18
  ------------------------------------------------------------------------------

     CUMULATIVE VOLUMES      L**3       RATES FOR THIS TIME STEP      L**3/T
     ------------------                 ------------------------

           IN:                                      IN:
           ---                                      ---
             STORAGE     =    37478948.0000               STORAGE     =       9.1737E-02
       CONSTANT HEAD     =           0.0000         CONSTANT HEAD     =           0.0000
               WELLS     =           0.0000                 WELLS     =           0.0000
     HEAD DEP BOUNDS     =    12323048.0000       HEAD DEP BOUNDS     =           0.2739
      STREAM LEAKAGE     =   497528480.0000        STREAM LEAKAGE     =          11.6738
        UZF RECHARGE     =  1047729280.0000          UZF RECHARGE     =          20.5251
               GW ET     =           0.0000                 GW ET     =           0.0000
     SURFACE LEAKAGE     =           0.0000       SURFACE LEAKAGE     =           0.0000
    SUPPLEMENTARY WELLS  =           0.0000      SUPPLEMENTARY WELLS  =           0.0000

                TOTAL IN =  1595059712.0000                  TOTAL IN =          32.5646

          OUT:                                     OUT:
          ----                                     ----
             STORAGE     =   997286336.0000               STORAGE     =          19.7335
       CONSTANT HEAD     =           0.0000         CONSTANT HEAD     =           0.0000
               WELLS     =           0.0000                 WELLS     =           0.0000
     HEAD DEP BOUNDS     =    12940228.0000       HEAD DEP BOUNDS     =           0.2930
      STREAM LEAKAGE     =   493407328.0000        STREAM LEAKAGE     =          10.7839
        UZF RECHARGE     =           0.0000          UZF RECHARGE     =           0.0000
               GW ET     =    91229328.0000                 GW ET     =           1.7500
     SURFACE LEAKAGE     =           0.0000       SURFACE LEAKAGE     =           0.0000
    SUPPLEMENTARY WELLS  =       38908.9648      SUPPLEMENTARY WELLS  =       9.6203E-03

               TOTAL OUT =  1594902144.0000                 TOTAL OUT =          32.5700

                IN - OUT =      157568.0000                  IN - OUT =      -5.4474E-03

     PERCENT DISCREPANCY =           0.01         PERCENT DISCREPANCY =          -0.02






         TIME SUMMARY AT END OF TIME STEP   30 IN STRESS PERIOD   18
                    SECONDS     MINUTES      HOURS       DAYS        YEARS
                    -----------------------------------------------------------
   TIME STEP LENGTH  87600.      1460.0      24.333      1.0139     2.77588E-03
 STRESS PERIOD TIME 2.62800E+06  43800.      730.00      30.417     8.32763E-02
         TOTAL TIME 4.47624E+07 7.46040E+05  12434.      518.08      1.4184    
1
1
                            STRESS PERIOD NO.   19, LENGTH =   2628000.    
                            -----------------------------------------------

                              NUMBER OF TIME STEPS =    30

                               MULTIPLIER FOR DELT =     1.000

                            INITIAL TIME STEP SIZE =   87600.00    

 WELL NO.  LAYER   ROW   COL   STRESS RATE         
 --------------------------------------------------
      1      1      6      4       0.000    
      2      1      6      7       0.000    
      3      1      7      4       0.000    
      4      1      7      5       0.000    
      5      1      8      4       0.000    
      6      1      8      5       0.000    
      7      1      9      4       0.000    
      8      1      9      5       0.000    
      9      1     10      4       0.000    
     10      1     10      5       0.000    

     10 WELLS

 REUSING NON-PARAMETER GHB CELLS FROM LAST STRESS PERIOD

      2 GHB CELLS

 REUSING STREAM SEGMENT DATA FROM LAST STRESS PERIOD



            AREAL INFILTRATION RATE
 READING ON UNIT   19 WITH FORMAT: (10F4.0)            

            1           2           3           4           5           6           7           8           9          10
 ........................................................................................................................
   1    0.000       0.000       0.000       0.000       0.000       0.000       0.000       0.000       0.000       0.000    
   2    0.000       0.000       0.000       0.000       0.000       0.000       0.000       0.000       0.000       0.000    
   3    0.000       0.000       0.000       0.000       0.000       0.000       0.000       0.000       0.000       0.000    
   4    0.000       0.000       0.000       0.000       0.000       0.000       0.000       0.000       0.000       0.000    
   5    0.000       0.000       0.000       0.000       0.000       0.000       0.000       0.000       0.000       0.000    
   6    0.000       0.000       0.000       0.000       0.000       0.000       0.000       0.000       0.000       0.000    
   7    0.000       0.000       0.000       0.000       0.000       0.000       0.000       0.000       0.000       0.000    
   8    0.000       0.000       0.000       0.000       0.000       0.000       0.000       0.000       0.000       0.000    
   9    0.000       0.000       0.000       0.000       0.000       0.000       0.000       0.000       0.000       0.000    
  10    0.000       0.000       0.000       0.000       0.000       0.000       0.000       0.000       0.000       0.000    
  11    0.000       0.000       0.000       0.000       0.000       0.000       0.000       0.000       0.000       0.000    
  12    0.000       0.000       0.000       0.000       0.000       0.000       0.000       0.000       0.000       0.000    
  13    0.000       0.000       0.000       0.000       0.000       0.000       0.000       0.000       0.000       0.000    
  14    0.000       0.000       0.000       0.000       0.000       0.000       0.000       0.000       0.000       0.000    
  15    0.000       0.000       0.000       0.000       0.000       0.000       0.000       0.000       0.000       0.000    

                  ET RATE =  3.000000E-08

 USING ET EXTINCTION DEPTH FROM PREVIOUS STRESS PERIOD. CURRENT PERIOD IS:      19

 USING EXTINCTION WATER CONTENT FROM PREVIOUS STRESS PERIOD. CURRENT PERIOD IS:      19

 PROCESSING AGO STRESS PERIOD DATA

 READING AGO STRESS PERIOD DATA

 READING IRRIGATION STREAM

 READING IRRIGATION WELL

 READING SUPPLEMENTAL WEL

 END PROCESSING AGO STRESS PERIOD DATA OPTIONS
 
 SOLVING FOR HEAD 
                                                   Max.-Head-Change                         Max.-Flux-Residual
  Residual-Control   Outer-Iter.   Inner-Iter.     Column Row Layer    Maximum-Head-Change  Column Row Layer    Maximum-Flux-Residual          L2-NORM 
          0                 1           2             7   13     1      -0.9205973447E-02       7   13    1        -0.4937291824E+00      0.1751763367E+01
          0                 2           2             8    2     1       0.1884036015E-02       2    2    1         0.7700069801E-01      0.3561067406E+00
          0                 3           2             8    2     1       0.8466033139E-03       8    2    1         0.2199033515E-01      0.1175254116E+00
          0                 4           2             8    2     1       0.3804262247E-03       8    2    1         0.9881493097E-02      0.4949374023E-01
          0                 5           2             8    2     1       0.1709466695E-03       8    2    1         0.4440307106E-02      0.2193409660E-01
          0                 6           1             8    2     1       0.7681579838E-04       8    2    1         0.1995276812E-02      0.9799705728E-02
          0                 7           1             8    2     1       0.3451756497E-04       8    2    1         0.8965881743E-03      0.4384075665E-02
          0                 8           1             8    2     1       0.1551063060E-04       8    2    1         0.4028863535E-03      0.1961849614E-02
          0                 9           1             8    2     1       0.6969769411E-05       8    2    1         0.1810388534E-03      0.8780227782E-03

    ------------------------------------------------
       NWT REQUIRED            9 OUTER ITERATIONS 
       AND A TOTAL OF         14 INNER ITERATIONS.
    ------------------------------------------------

 NO OUTPUT CONTROL FOR STRESS PERIOD   19   TIME STEP    1
 
 SOLVING FOR HEAD 
                                                   Max.-Head-Change                         Max.-Flux-Residual
  Residual-Control   Outer-Iter.   Inner-Iter.     Column Row Layer    Maximum-Head-Change  Column Row Layer    Maximum-Flux-Residual          L2-NORM 
          0                 1           2             7   13     1      -0.8919444197E-02       7   13    1        -0.4782881630E+00      0.1734020239E+01
          0                 2           2             2   13     1       0.2116354557E-02       2   13    1         0.1207464680E+00      0.4231992759E+00
          0                 3           2             4    6     1      -0.7242879443E-01       4    6    1        -0.3993692435E+01      0.3995466881E+01
          0                 4           2             4    6     1       0.7446211290E-01       4    6    1         0.4143635085E+01      0.4148385579E+01
          0                 5           2             4    6     1      -0.1539725706E-02       4    6    1        -0.8711893467E-01      0.9422868562E-01
          0                 6           2             4    6     1      -0.2799647113E-03       4    6    1        -0.1584066547E-01      0.1926394508E-01
          0                 7           1             3    6     1       0.5607214936E-04       4    6    1        -0.2880107785E-02      0.5466582140E-02
          0                 8           1             3    6     1       0.2506729195E-04       3    6    1         0.6782567618E-03      0.2131904346E-02
          0                 9           1             3    6     1       0.1123645907E-04       3    6    1         0.3034382618E-03      0.9296586128E-03
          0                10           1             3    6     1       0.5042190877E-05       3    6    1         0.1360553117E-03      0.4145582139E-03

    ------------------------------------------------
       NWT REQUIRED           10 OUTER ITERATIONS 
       AND A TOTAL OF         16 INNER ITERATIONS.
    ------------------------------------------------

 NO OUTPUT CONTROL FOR STRESS PERIOD   19   TIME STEP    2
 
 SOLVING FOR HEAD 
                                                   Max.-Head-Change                         Max.-Flux-Residual
  Residual-Control   Outer-Iter.   Inner-Iter.     Column Row Layer    Maximum-Head-Change  Column Row Layer    Maximum-Flux-Residual          L2-NORM 
          0                 1           2             7   13     1      -0.8643560474E-02       7   13    1        -0.4634226972E+00      0.1717590645E+01
          0                 2           2             2   13     1       0.2102984545E-02       2   13    1         0.1199949355E+00      0.4214896893E+00
          0                 3           2             4    6     1      -0.7242876697E-01       4    6    1        -0.3993693536E+01      0.3995466064E+01
          0                 4           2             4    6     1       0.7446241172E-01       4    6    1         0.4143654010E+01      0.4148412551E+01
          0                 5           2             4    6     1      -0.1540003469E-02       4    6    1        -0.8713462032E-01      0.9424519728E-01
          0                 6           2             4    6     1      -0.2800153519E-03       4    6    1        -0.1584352602E-01      0.1926583081E-01
          0                 7           1             3    6     1       0.5608353039E-04       4    6    1        -0.2880629231E-02      0.5466417930E-02
          0                 8           1             3    6     1       0.2507235490E-04       3    6    1         0.6783943090E-03      0.2131676432E-02
          0                 9           1             3    6     1       0.1123871685E-04       3    6    1         0.3034994785E-03      0.9295325854E-03
          0                10           1             3    6     1       0.5043199556E-05       3    6    1         0.1360826309E-03      0.4144956132E-03

    ------------------------------------------------
       NWT REQUIRED           10 OUTER ITERATIONS 
       AND A TOTAL OF         16 INNER ITERATIONS.
    ------------------------------------------------

 NO OUTPUT CONTROL FOR STRESS PERIOD   19   TIME STEP    3
 
 SOLVING FOR HEAD 
                                                   Max.-Head-Change                         Max.-Flux-Residual
  Residual-Control   Outer-Iter.   Inner-Iter.     Column Row Layer    Maximum-Head-Change  Column Row Layer    Maximum-Flux-Residual          L2-NORM 
          0                 1           2             2    2     1       0.8414961391E-02       7   13    1        -0.4490897303E+00      0.1702255274E+01
          0                 2           2             2   13     1       0.2090445041E-02       2   13    1         0.1192903044E+00      0.4198728967E+00
          0                 3           2             4    6     1      -0.7242873199E-01       4    6    1        -0.3993694220E+01      0.3995464909E+01
          0                 4           2             4    6     1       0.7446262299E-01       4    6    1         0.4143668066E+01      0.4148434115E+01
          0                 5           2             4    6     1      -0.1540208615E-02       4    6    1        -0.8714622719E-01      0.9425734065E-01
          0                 6           2             4    6     1      -0.2800526385E-03       4    6    1        -0.1584563711E-01      0.1926706325E-01
          0                 7           1             3    6     1       0.5609458404E-04       4    6    1        -0.2881012793E-02      0.5466157947E-02
          0                 8           1             3    6     1       0.2507728425E-04       3    6    1         0.6785279753E-03      0.2131426713E-02
          0                 9           1             3    6     1       0.1124092084E-04       3    6    1         0.3035591366E-03      0.9293988691E-03
          0                10           1             3    6     1       0.5044185885E-05       3    6    1         0.1361093003E-03      0.4144310717E-03

    ------------------------------------------------
       NWT REQUIRED           10 OUTER ITERATIONS 
       AND A TOTAL OF         16 INNER ITERATIONS.
    ------------------------------------------------

 NO OUTPUT CONTROL FOR STRESS PERIOD   19   TIME STEP    4
 
 SOLVING FOR HEAD 
                                                   Max.-Head-Change                         Max.-Flux-Residual
  Residual-Control   Outer-Iter.   Inner-Iter.     Column Row Layer    Maximum-Head-Change  Column Row Layer    Maximum-Flux-Residual          L2-NORM 
          0                 1           2             2    2     1       0.8388348245E-02       2    2    1         0.4368007398E+00      0.1688302407E+01
          0                 2           2             2   13     1       0.2078676349E-02       2   13    1         0.1186305442E+00      0.4184000390E+00
          0                 3           2             4    6     1      -0.7242868206E-01       4    6    1        -0.3993694086E+01      0.3995463153E+01
          0                 4           2             4    6     1       0.6900274322E-01       4    6    1         0.3839888596E+01      0.3844340284E+01
          0                 5           2             4    6     1       0.2941610066E-02       4    6    1         0.1630592566E+00      0.1660296838E+00
          0                 6           2             4    6     1       0.5224570387E-03       4    6    1         0.2891232809E-01      0.3110495675E-01
          0                 7           1             4    6     1       0.9311613058E-04       4    6    1         0.5138694894E-02      0.7034522119E-02
          0                 8           1             3    6     1       0.2942869429E-04       4    6    1         0.9169481939E-03      0.2306604168E-02
          0                 9           1             3    6     1       0.1324018346E-04       3    6    1         0.3566640960E-03      0.9591870381E-03
          0                10           1             3    6     1       0.5946728139E-05       3    6    1         0.1603780128E-03      0.4241385252E-03

    ------------------------------------------------
       NWT REQUIRED           10 OUTER ITERATIONS 
       AND A TOTAL OF         16 INNER ITERATIONS.
    ------------------------------------------------

 NO OUTPUT CONTROL FOR STRESS PERIOD   19   TIME STEP    5
 
 SOLVING FOR HEAD 
                                                   Max.-Head-Change                         Max.-Flux-Residual
  Residual-Control   Outer-Iter.   Inner-Iter.     Column Row Layer    Maximum-Head-Change  Column Row Layer    Maximum-Flux-Residual          L2-NORM 
          0                 1           2             2    2     1       0.8362315500E-02       2    2    1         0.4354314882E+00      0.1675351509E+01
          0                 2           2             2   13     1       0.2067695814E-02       2   13    1         0.1180128848E+00      0.4169983779E+00
          0                 3           2             4    6     1      -0.7242863370E-01       4    6    1        -0.3993694024E+01      0.3995461151E+01
          0                 4           2             4    6     1       0.4487265290E-01       4    6    1         0.2497317987E+01      0.2500434534E+01
          0                 5           2             4    6     1       0.2600126078E-01       4    6    1         0.1446320168E+01      0.1448269484E+01
          0                 6           2             4    6     1       0.1402599594E-02       4    6    1         0.7769085727E-01      0.7953086404E-01
          0                 7           2             4    6     1       0.2494381120E-03       4    6    1         0.1378966583E-01      0.1491112392E-01
          0                 8           1             4    6     1       0.4455009532E-04       4    6    1         0.2454367488E-02      0.3390198667E-02
          0                 9           1             3    6     1       0.1950426232E-04       3    6    1         0.5253174371E-03      0.1117589085E-02
          0                10           1             3    6     1       0.8753240810E-05       3    6    1         0.2362469619E-03      0.4655299471E-03

    ------------------------------------------------
       NWT REQUIRED           10 OUTER ITERATIONS 
       AND A TOTAL OF         17 INNER ITERATIONS.
    ------------------------------------------------

 NO OUTPUT CONTROL FOR STRESS PERIOD   19   TIME STEP    6
 
 SOLVING FOR HEAD 
                                                   Max.-Head-Change                         Max.-Flux-Residual
  Residual-Control   Outer-Iter.   Inner-Iter.     Column Row Layer    Maximum-Head-Change  Column Row Layer    Maximum-Flux-Residual          L2-NORM 
          0                 1           2             2    2     1       0.8336672114E-02       2    2    1         0.4340827675E+00      0.1663196835E+01
          0                 2           2             2   13     1       0.2057410412E-02       2   13    1         0.1174341591E+00      0.4156621486E+00
          0                 3           2             4    6     1      -0.7242857181E-01       4    6    1        -0.3993693219E+01      0.3995458327E+01
          0                 4           2             4    6     1       0.2824302166E-01       4    6    1         0.1572063704E+01      0.1574467977E+01
     PET DIFF ERROR     6    5   -0.5623274854E-09    0.2999999804E-07
     PET DIFF ERROR     7    4   -0.5623274987E-09    0.2999999804E-07
     PET DIFF ERROR     7    5   -0.5623275275E-09    0.2999999804E-07
     PET DIFF ERROR     8    4   -0.5776365941E-09    0.2999999804E-07
     PET DIFF ERROR     8    5   -0.5623251352E-09    0.2999999804E-07
          0                 5           2             4    6     1       0.1948810816E-01       4    6    1         0.1084111630E+01      0.1085654993E+01
          0                 6           2             4    6     1       0.2291537719E-01       4    6    1         0.1274726036E+01      0.1274795382E+01
          0                 7           2             4    6     1       0.1590228279E-02       4    6    1         0.8818412009E-01      0.8895187036E-01
          0                 8           2             4    6     1       0.2822594438E-03       4    6    1         0.1562541227E-01      0.1606600466E-01
          0                 9           1             4    6     1       0.5028057893E-04       4    6    1         0.2775453713E-02      0.3123330829E-02
          0                10           1             3    6     1       0.1690295706E-04       4    6    1         0.4950213529E-03      0.7881936835E-03
          0                11           1             3    6     1       0.7577329260E-05       3    6    1         0.2047081219E-03      0.2862480536E-03

    ------------------------------------------------
       NWT REQUIRED           11 OUTER ITERATIONS 
       AND A TOTAL OF         19 INNER ITERATIONS.
    ------------------------------------------------

 NO OUTPUT CONTROL FOR STRESS PERIOD   19   TIME STEP    7
 
 SOLVING FOR HEAD 
                                                   Max.-Head-Change                         Max.-Flux-Residual
  Residual-Control   Outer-Iter.   Inner-Iter.     Column Row Layer    Maximum-Head-Change  Column Row Layer    Maximum-Flux-Residual          L2-NORM 
          0                 1           2             2    2     1       0.8311411125E-02       2    2    1         0.4327542714E+00      0.1652406033E+01
          0                 2           2             2   13     1       0.2052058569E-02       2   13    1         0.1171369679E+00      0.4146573036E+00
          0                 3           2             4    6     1      -0.7242851101E-01       4    6    1        -0.3993692491E+01      0.3995456326E+01
          0                 4           2             4    6     1       0.7446253148E-01       4    6    1         0.4143672196E+01      0.4148461910E+01
          0                 5           2             4    6     1      -0.1540251818E-02       4    6    1        -0.8714899489E-01      0.9426353613E-01
          0                 6           2             4    6     1      -0.2800587812E-03       4    6    1        -0.1584605766E-01      0.1926439048E-01
          0                 7           1             3    6     1       0.5614030980E-04       4    6    1        -0.2881070502E-02      0.5463650064E-02
          0                 8           1             3    6     1       0.2509773105E-04       3    6    1         0.6790813429E-03      0.2130004778E-02
          0                 9           1             3    6     1       0.1125006764E-04       3    6    1         0.3038066070E-03      0.9286961996E-03
          0                10           1             3    6     1       0.5048278563E-05       3    6    1         0.1362200144E-03      0.4140941567E-03

    ------------------------------------------------
       NWT REQUIRED           10 OUTER ITERATIONS 
       AND A TOTAL OF         16 INNER ITERATIONS.
    ------------------------------------------------

 NO OUTPUT CONTROL FOR STRESS PERIOD   19   TIME STEP    8
 
 SOLVING FOR HEAD 
                                                   Max.-Head-Change                         Max.-Flux-Residual
  Residual-Control   Outer-Iter.   Inner-Iter.     Column Row Layer    Maximum-Head-Change  Column Row Layer    Maximum-Flux-Residual          L2-NORM 
          0                 1           2             2    2     1       0.8286697008E-02       2    2    1         0.4314545566E+00      0.1641977444E+01
          0                 2           2             2   13     1       0.2042711285E-02       2   13    1         0.1166105213E+00      0.4135059010E+00
          0                 3           2             4    6     1      -0.7242843920E-01       4    6    1        -0.3993691122E+01      0.3995453601E+01
          0                 4           2             4    6     1       0.5020226653E-01       4    6    1         0.2793856676E+01      0.2797262575E+01
          0                 5           2             4    6     1       0.2024527814E-01       4    6    1         0.1126011436E+01      0.1127684862E+01
          0                 6           2             4    6     1       0.1753902366E-02       4    6    1         0.9728601160E-01      0.9848704495E-01
          0                 7           2             4    6     1       0.3112122224E-03       4    6    1         0.1723258113E-01      0.1809580636E-01
          0                 8           1             4    6     1       0.5542175224E-04       4    6    1         0.3059966422E-02      0.3832537642E-02
          0                 9           1             3    6     1       0.1865438187E-04       4    6    1         0.5456097392E-03      0.1152632791E-02
          0                10           1             3    6     1       0.8378212382E-05       3    6    1         0.2260020487E-03      0.4636657472E-03

    ------------------------------------------------
       NWT REQUIRED           10 OUTER ITERATIONS 
       AND A TOTAL OF         17 INNER ITERATIONS.
    ------------------------------------------------

 NO OUTPUT CONTROL FOR STRESS PERIOD   19   TIME STEP    9
 
 SOLVING FOR HEAD 
                                                   Max.-Head-Change                         Max.-Flux-Residual
  Residual-Control   Outer-Iter.   Inner-Iter.     Column Row Layer    Maximum-Head-Change  Column Row Layer    Maximum-Flux-Residual          L2-NORM 
          0                 1           2             2    2     1       0.8262342484E-02       2    2    1         0.4301738234E+00      0.1632137769E+01
          0                 2           2             2   13     1       0.2033943941E-02       2   13    1         0.1161166182E+00      0.4124045596E+00
          0                 3           2             4    6     1      -0.7242837003E-01       4    6    1        -0.3993689896E+01      0.3995450840E+01
          0                 4           2             4    6     1       0.3202728304E-01       4    6    1         0.1782619020E+01      0.1785159299E+01
     PET DIFF ERROR     6    5   -0.1423082369E-08    0.2999999804E-07
     PET DIFF ERROR     7    4   -0.1423082369E-08    0.2999999804E-07
     PET DIFF ERROR     7    5   -0.1423082368E-08    0.2999999804E-07
     PET DIFF ERROR     8    4   -0.1420012408E-08    0.2999999804E-07
     PET DIFF ERROR     8    5   -0.1423082455E-08    0.2999999804E-07
          0                 5           2             4    6     1       0.2236847970E-01       4    6    1         0.1244333997E+01      0.1246046940E+01
          0                 6           2             4    6     1       0.1571771970E-01       4    6    1         0.8742251854E+00      0.8743448967E+00
          0                 7           2             4    6     1       0.2029481123E-02       4    6    1         0.1126909961E+00      0.1130849597E+00
          0                 8           2             4    6     1       0.3594619784E-03       4    6    1         0.1992954950E-01      0.2022464534E-01
          0                 9           1             4    6     1       0.6385835163E-04       4    6    1         0.3532154314E-02      0.3785238971E-02
          0                10           1             3    6     1       0.1545598578E-04       4    6    1         0.6281185335E-03      0.8576954461E-03
          0                11           1             3    6     1       0.6936877734E-05       3    6    1         0.1872494757E-03      0.2822749552E-03

    ------------------------------------------------
       NWT REQUIRED           11 OUTER ITERATIONS 
       AND A TOTAL OF         19 INNER ITERATIONS.
    ------------------------------------------------

 NO OUTPUT CONTROL FOR STRESS PERIOD   19   TIME STEP   10
 
 SOLVING FOR HEAD 
                                                   Max.-Head-Change                         Max.-Flux-Residual
  Residual-Control   Outer-Iter.   Inner-Iter.     Column Row Layer    Maximum-Head-Change  Column Row Layer    Maximum-Flux-Residual          L2-NORM 
          0                 1           2             2    2     1       0.8238431287E-02       2    2    1         0.4289164674E+00      0.1623158258E+01
          0                 2           2             2   13     1       0.2028488441E-02       2   13    1         0.1158116404E+00      0.4114717278E+00
          0                 3           2             4    6     1      -0.7242828953E-01       4    6    1        -0.3993688036E+01      0.3995447252E+01
          0                 4           2             4    6     1       0.5152533479E-01       4    6    1         0.2867474106E+01      0.2870957688E+01
          0                 5           2             4    6     1       0.1881593434E-01       4    6    1         0.1046471874E+01      0.1048086663E+01
          0                 6           2             4    6     1       0.1841435106E-02       4    6    1         0.1021684893E+00      0.1032544959E+00
          0                 7           2             4    6     1       0.3266041526E-03       4    6    1         0.1809043646E-01      0.1890367614E-01
          0                 8           1             4    6     1       0.5813059761E-04       4    6    1         0.3210860135E-02      0.3949386769E-02
          0                 9           1             3    6     1       0.1844585126E-04       4    6    1         0.5721707180E-03      0.1162632963E-02
          0                10           1             3    6     1       0.8286215060E-05       3    6    1         0.2234884810E-03      0.4632678032E-03

    ------------------------------------------------
       NWT REQUIRED           10 OUTER ITERATIONS 
       AND A TOTAL OF         17 INNER ITERATIONS.
    ------------------------------------------------

 NO OUTPUT CONTROL FOR STRESS PERIOD   19   TIME STEP   11
 
 SOLVING FOR HEAD 
                                                   Max.-Head-Change                         Max.-Flux-Residual
  Residual-Control   Outer-Iter.   Inner-Iter.     Column Row Layer    Maximum-Head-Change  Column Row Layer    Maximum-Flux-Residual          L2-NORM 
          0                 1           2             2    2     1       0.8214947736E-02       2    2    1         0.4276816630E+00      0.1614368790E+01
          0                 2           2             2   13     1       0.2020636887E-02       2   13    1         0.1153690640E+00      0.4104671963E+00
          0                 3           2             4    6     1      -0.7242821273E-01       4    6    1        -0.3993686379E+01      0.3995444082E+01
          0                 4           2             4    6     1       0.3294857548E-01       4    6    1         0.1833880882E+01      0.1836460330E+01
     PET DIFF ERROR     6    5   -0.1659558714E-08    0.2999999804E-07
     PET DIFF ERROR     7    4   -0.1659585106E-08    0.2999999804E-07
     PET DIFF ERROR     7    5   -0.1659558706E-08    0.2999999804E-07
     PET DIFF ERROR     8    4   -0.1648197574E-08    0.2999999804E-07
     PET DIFF ERROR     8    5   -0.1659560117E-08    0.2999999804E-07
          0                 5           2             4    6     1       0.2306764281E-01       4    6    1         0.1283226335E+01      0.1284982969E+01
          0                 6           2             4    6     1       0.1396716025E-01       4    6    1         0.7768187120E+00      0.7769625900E+00
          0                 7           2             4    6     1       0.2136665167E-02       4    6    1         0.1186710680E+00      0.1190051879E+00
          0                 8           2             4    6     1       0.3783003728E-03       4    6    1         0.2097981790E-01      0.2124908562E-01
          0                 9           1             4    6     1       0.6717149651E-04       4    6    1         0.3716798455E-02      0.3952240069E-02
          0                10           1             3    6     1       0.1510543188E-04       4    6    1         0.6605959127E-03      0.8771322217E-03
          0                11           1             3    6     1       0.6781726386E-05       3    6    1         0.1830198967E-03      0.2817333517E-03

    ------------------------------------------------
       NWT REQUIRED           11 OUTER ITERATIONS 
       AND A TOTAL OF         19 INNER ITERATIONS.
    ------------------------------------------------

 NO OUTPUT CONTROL FOR STRESS PERIOD   19   TIME STEP   12
 
 SOLVING FOR HEAD 
                                                   Max.-Head-Change                         Max.-Flux-Residual
  Residual-Control   Outer-Iter.   Inner-Iter.     Column Row Layer    Maximum-Head-Change  Column Row Layer    Maximum-Flux-Residual          L2-NORM 
          0                 1           2             2    2     1       0.8191798848E-02       2    2    1         0.4264645203E+00      0.1606695568E+01
          0                 2           2             2   13     1       0.2015535911E-02       2   13    1         0.1150854083E+00      0.4096791593E+00
          0                 3           2             4    6     1      -0.7242812502E-01       4    6    1        -0.3993684129E+01      0.3995440598E+01
          0                 4           2             4    6     1       0.4641852194E-01       4    6    1         0.2583338479E+01      0.2586554270E+01
          0                 5           2             4    6     1       0.2433018315E-01       4    6    1         0.1353332835E+01      0.1355206677E+01
          0                 6           2             4    6     1       0.1505602257E-02       4    6    1         0.8343625706E-01      0.8505403967E-01
          0                 7           2             4    6     1       0.2675503840E-03       4    6    1         0.1479913047E-01      0.1583229509E-01
          0                 8           1             4    6     1       0.4773781392E-04       4    6    1         0.2631930419E-02      0.3513580244E-02
          0                 9           1             3    6     1       0.1927204972E-04       3    6    1         0.5188897932E-03      0.1126062477E-02
          0                10           1             3    6     1       0.8650872047E-05       3    6    1         0.2334485710E-03      0.4644741662E-03

    ------------------------------------------------
       NWT REQUIRED           10 OUTER ITERATIONS 
       AND A TOTAL OF         17 INNER ITERATIONS.
    ------------------------------------------------

 NO OUTPUT CONTROL FOR STRESS PERIOD   19   TIME STEP   13
 
 SOLVING FOR HEAD 
                                                   Max.-Head-Change                         Max.-Flux-Residual
  Residual-Control   Outer-Iter.   Inner-Iter.     Column Row Layer    Maximum-Head-Change  Column Row Layer    Maximum-Flux-Residual          L2-NORM 
          0                 1           2             2    2     1       0.8169149670E-02       2    2    1         0.4252737133E+00      0.1599104614E+01
          0                 2           2             2   13     1       0.2008540691E-02       2   13    1         0.1146914131E+00      0.4087566287E+00
          0                 3           2             4    6     1      -0.7242804302E-01       4    6    1        -0.3993682165E+01      0.3995436708E+01
          0                 4           2             4    6     1       0.2934879430E-01       4    6    1         0.1633593948E+01      0.1636043492E+01
     PET DIFF ERROR     6    5   -0.5564972132E-09    0.2999999804E-07
     PET DIFF ERROR     7    4   -0.5565132376E-09    0.2999999804E-07
     PET DIFF ERROR     7    5   -0.5564972477E-09    0.2999999804E-07
     PET DIFF ERROR     8    4   -0.5651771496E-09    0.2999999804E-07
     PET DIFF ERROR     8    5   -0.5564958540E-09    0.2999999804E-07
          0                 5           2             4    6     1       0.2032519351E-01       4    6    1         0.1130678700E+01      0.1132277322E+01
          0                 6           2             4    6     1       0.2081535941E-01       4    6    1         0.1157878490E+01      0.1157958289E+01
          0                 7           2             4    6     1       0.1719580901E-02       4    6    1         0.9540108161E-01      0.9603285022E-01
          0                 8           2             4    6     1       0.3049940559E-03       4    6    1         0.1689290115E-01      0.1728253733E-01
          0                 9           1             4    6     1       0.5427901526E-04       4    6    1         0.2998286510E-02      0.3313636806E-02
          0                10           1             3    6     1       0.1648842216E-04       4    6    1         0.5342166098E-03      0.8066685601E-03
          0                11           1             3    6     1       0.7393891658E-05       3    6    1         0.1997068769E-03      0.2846941940E-03

    ------------------------------------------------
       NWT REQUIRED           11 OUTER ITERATIONS 
       AND A TOTAL OF         19 INNER ITERATIONS.
    ------------------------------------------------

 NO OUTPUT CONTROL FOR STRESS PERIOD   19   TIME STEP   14
 
 SOLVING FOR HEAD 
                                                   Max.-Head-Change                         Max.-Flux-Residual
  Residual-Control   Outer-Iter.   Inner-Iter.     Column Row Layer    Maximum-Head-Change  Column Row Layer    Maximum-Flux-Residual          L2-NORM 
          0                 1           2             2    2     1       0.8146816380E-02       2    2    1         0.4240995769E+00      0.1592249607E+01
          0                 2           2             2   13     1       0.2005865367E-02       2   13    1         0.1145435953E+00      0.4080992151E+00
          0                 3           2             4    6     1      -0.7242795085E-01       4    6    1        -0.3993679638E+01      0.3995432784E+01
          0                 4           2             4    6     1       0.7061394984E-01       4    6    1         0.3929556364E+01      0.3934145591E+01
          0                 5           2             4    6     1       0.1614587116E-02       4    6    1         0.8920867336E-01      0.9473270909E-01
          0                 6           2             4    6     1       0.2882625954E-03       4    6    1         0.1589268461E-01      0.1948755031E-01
          0                 7           1             3    6     1       0.6256879232E-04       4    6    1         0.2840013737E-02      0.5527353641E-02
          0                 8           1             3    6     1       0.2819436396E-04       3    6    1         0.7586662549E-03      0.2157326190E-02
          0                 9           1             3    6     1       0.1267317431E-04       3    6    1         0.3415952887E-03      0.9411704974E-03
          0                10           1             3    6     1       0.5690843441E-05       3    6    1         0.1534948025E-03      0.4197254328E-03

    ------------------------------------------------
       NWT REQUIRED           10 OUTER ITERATIONS 
       AND A TOTAL OF         16 INNER ITERATIONS.
    ------------------------------------------------

 NO OUTPUT CONTROL FOR STRESS PERIOD   19   TIME STEP   15
 
 SOLVING FOR HEAD 
                                                   Max.-Head-Change                         Max.-Flux-Residual
  Residual-Control   Outer-Iter.   Inner-Iter.     Column Row Layer    Maximum-Head-Change  Column Row Layer    Maximum-Flux-Residual          L2-NORM 
          0                 1           2             2    2     1       0.8124875852E-02       2    2    1         0.4229461290E+00      0.1585429100E+01
          0                 2           2             2   13     1       0.1999451914E-02       2   13    1         0.1141815720E+00      0.4072695204E+00
          0                 3           2             4    6     1      -0.7242786439E-01       4    6    1        -0.3993677416E+01      0.3995429163E+01
          0                 4           2             4    6     1       0.4594999926E-01       4    6    1         0.2557274554E+01      0.2560471683E+01
          0                 5           2             4    6     1       0.2483487387E-01       4    6    1         0.1381420440E+01      0.1383323502E+01
          0                 6           2             4    6     1       0.1475720068E-02       4    6    1         0.8176945257E-01      0.8344889591E-01
          0                 7           2             4    6     1       0.2622960459E-03       4    6    1         0.1450627398E-01      0.1556285994E-01
          0                 8           1             4    6     1       0.4681321352E-04       4    6    1         0.2580420709E-02      0.3476164001E-02
          0                 9           1             3    6     1       0.1935353019E-04       3    6    1         0.5211363040E-03      0.1122755473E-02
          0                10           1             3    6     1       0.8686884123E-05       3    6    1         0.2344312354E-03      0.4643865889E-03

    ------------------------------------------------
       NWT REQUIRED           10 OUTER ITERATIONS 
       AND A TOTAL OF         17 INNER ITERATIONS.
    ------------------------------------------------

 NO OUTPUT CONTROL FOR STRESS PERIOD   19   TIME STEP   16
 
 SOLVING FOR HEAD 
                                                   Max.-Head-Change                         Max.-Flux-Residual
  Residual-Control   Outer-Iter.   Inner-Iter.     Column Row Layer    Maximum-Head-Change  Column Row Layer    Maximum-Flux-Residual          L2-NORM 
          0                 1           2             2    2     1       0.8103232502E-02       2    2    1         0.4218084066E+00      0.1579242979E+01
          0                 2           2             2   13     1       0.1993448003E-02       2   13    1         0.1138426376E+00      0.4065089232E+00
          0                 3           2             4    6     1      -0.7242776859E-01       4    6    1        -0.3993674690E+01      0.3995425058E+01
          0                 4           2             4    6     1       0.2901441468E-01       4    6    1         0.1614991990E+01      0.1617433422E+01
     PET DIFF ERROR     6    5   -0.4084068560E-09    0.2999999804E-07
     PET DIFF ERROR     7    4   -0.4084264995E-09    0.2999999804E-07
     PET DIFF ERROR     7    5   -0.4084068855E-09    0.2999999804E-07
     PET DIFF ERROR     8    4   -0.4145904868E-09    0.2999999804E-07
     PET DIFF ERROR     8    5   -0.4084058993E-09    0.2999999804E-07
          0                 5           2             4    6     1       0.2007177753E-01       4    6    1         0.1116584293E+01      0.1118170780E+01
          0                 6           2             4    6     1       0.2144867586E-01       4    6    1         0.1193120548E+01      0.1193198019E+01
          0                 7           2             4    6     1       0.1681988884E-02       4    6    1         0.9330371979E-01      0.9397308747E-01
          0                 8           2             4    6     1       0.2983871546E-03       4    6    1         0.1652454731E-01      0.1692826848E-01
          0                 9           1             4    6     1       0.5311714986E-04       4    6    1         0.2933529855E-02      0.3257828472E-02
          0                10           1             3    6     1       0.1662037835E-04       4    6    1         0.5228277157E-03      0.8010498764E-03
          0                11           1             3    6     1       0.7452328041E-05       3    6    1         0.2012992875E-03      0.2850635460E-03

    ------------------------------------------------
       NWT REQUIRED           11 OUTER ITERATIONS 
       AND A TOTAL OF         19 INNER ITERATIONS.
    ------------------------------------------------

 NO OUTPUT CONTROL FOR STRESS PERIOD   19   TIME STEP   17
 
 SOLVING FOR HEAD 
     PET DIFF ERROR     6    5   -0.4332034825E-09    0.2999999804E-07
     PET DIFF ERROR     7    4   -0.4332396135E-09    0.2999999804E-07
     PET DIFF ERROR     7    5   -0.4332032381E-09    0.2999999804E-07
     PET DIFF ERROR     8    4   -0.3328464473E-09    0.2999999804E-07
     PET DIFF ERROR     8    5   -0.4332184030E-09    0.2999999804E-07
                                                   Max.-Head-Change                         Max.-Flux-Residual
  Residual-Control   Outer-Iter.   Inner-Iter.     Column Row Layer    Maximum-Head-Change  Column Row Layer    Maximum-Flux-Residual          L2-NORM 
          0                 1           2             2    2     1       0.8082061036E-02       2    2    1         0.4206955058E+00      0.1573649902E+01
          0                 2           2             2   13     1       0.1970193180E-02       2   13    1         0.1125171678E+00      0.4048229421E+00
          0                 3           2             4    6     1      -0.7159941868E-01       4    6    1        -0.3948006750E+01      0.3949774941E+01
          0                 4           2             4    6     1       0.7012217628E-01       4    6    1         0.3902192606E+01      0.3906768436E+01
          0                 5           2             4    6     1       0.1337477070E-02       4    6    1         0.7379398814E-01      0.8039565711E-01
          0                 6           2             4    6     1       0.2393239903E-03       4    6    1         0.1317336152E-01      0.1729846375E-01
          0                 7           1             3    6     1       0.6162393316E-04       4    6    1         0.2359561193E-02      0.5279403786E-02
          0                 8           1             3    6     1       0.2775356662E-04       3    6    1         0.7470739091E-03      0.2132206564E-02
          0                 9           1             3    6     1       0.1247308883E-04       3    6    1         0.3362343174E-03      0.9369697058E-03
          0                10           1             3    6     1       0.5600958279E-05       3    6    1         0.1510693431E-03      0.4183540772E-03

    ------------------------------------------------
       NWT REQUIRED           10 OUTER ITERATIONS 
       AND A TOTAL OF         16 INNER ITERATIONS.
    ------------------------------------------------

 NO OUTPUT CONTROL FOR STRESS PERIOD   19   TIME STEP   18
 
 SOLVING FOR HEAD 
                                                   Max.-Head-Change                         Max.-Flux-Residual
  Residual-Control   Outer-Iter.   Inner-Iter.     Column Row Layer    Maximum-Head-Change  Column Row Layer    Maximum-Flux-Residual          L2-NORM 
          0                 1           2             2    2     1       0.8061167553E-02       2    2    1         0.4195972764E+00      0.1567941462E+01
          0                 2           2             2   13     1       0.1986358637E-02       2   13    1         0.1134452133E+00      0.4052410328E+00
          0                 3           2             4    6     1      -0.7242758096E-01       4    6    1        -0.3993669400E+01      0.3995416532E+01
          0                 4           2             4    6     1       0.4799980518E-01       4    6    1         0.2671328742E+01      0.2674638937E+01
          0                 5           2             4    6     1       0.2261966192E-01       4    6    1         0.1258149105E+01      0.1259942992E+01
          0                 6           2             4    6     1       0.1611965613E-02       4    6    1         0.8936900216E-01      0.9079049116E-01
          0                 7           2             4    6     1       0.2862540959E-03       4    6    1         0.1584153998E-01      0.1679426979E-01
          0                 8           1             4    6     1       0.5102969763E-04       4    6    1         0.2815292950E-02      0.3645618813E-02
          0                 9           1             3    6     1       0.1903072052E-04       3    6    1         0.5122102708E-03      0.1135642657E-02
          0                10           1             3    6     1       0.8544482568E-05       3    6    1         0.2305402743E-03      0.4634343026E-03

    ------------------------------------------------
       NWT REQUIRED           10 OUTER ITERATIONS 
       AND A TOTAL OF         17 INNER ITERATIONS.
    ------------------------------------------------

 NO OUTPUT CONTROL FOR STRESS PERIOD   19   TIME STEP   19
 
 SOLVING FOR HEAD 
                                                   Max.-Head-Change                         Max.-Flux-Residual
  Residual-Control   Outer-Iter.   Inner-Iter.     Column Row Layer    Maximum-Head-Change  Column Row Layer    Maximum-Flux-Residual          L2-NORM 
          0                 1           2             2    2     1       0.8040637054E-02       2    2    1         0.4185182274E+00      0.1562605723E+01
          0                 2           2             2   13     1       0.1981166912E-02       2   13    1         0.1131527349E+00      0.4045650635E+00
          0                 3           2             4    6     1      -0.7242748883E-01       4    6    1        -0.3993666861E+01      0.3995412660E+01
          0                 4           2             4    6     1       0.3046786989E-01       4    6    1         0.1695864033E+01      0.1698357701E+01
     PET DIFF ERROR     6    5   -0.6260041631E-09    0.2999999804E-07
     PET DIFF ERROR     7    4   -0.6260439886E-09    0.2999999804E-07
     PET DIFF ERROR     7    5   -0.6260042032E-09    0.2999999804E-07
     PET DIFF ERROR     8    4   -0.6313455164E-09    0.2999999804E-07
     PET DIFF ERROR     8    5   -0.6260033261E-09    0.2999999804E-07
          0                 5           2             4    6     1       0.2117952843E-01       4    6    1         0.1178205144E+01      0.1179857523E+01
          0                 6           2             4    6     1       0.1868127675E-01       4    6    1         0.1039133877E+01      0.1039226354E+01
          0                 7           2             4    6     1       0.1851867230E-02       4    6    1         0.1027816001E+00      0.1032994392E+00
          0                 8           2             4    6     1       0.3282448797E-03       4    6    1         0.1818914636E-01      0.1853443211E-01
          0                 9           1             4    6     1       0.5836835932E-04       4    6    1         0.3226180806E-02      0.3512509802E-02
          0                10           1             3    6     1       0.1606686212E-04       4    6    1         0.5743033712E-03      0.8272729048E-03
          0                11           1             3    6     1       0.7207357994E-05       3    6    1         0.1946209551E-03      0.2833867969E-03

    ------------------------------------------------
       NWT REQUIRED           11 OUTER ITERATIONS 
       AND A TOTAL OF         19 INNER ITERATIONS.
    ------------------------------------------------

 NO OUTPUT CONTROL FOR STRESS PERIOD   19   TIME STEP   20
 
 SOLVING FOR HEAD 
                                                   Max.-Head-Change                         Max.-Flux-Residual
  Residual-Control   Outer-Iter.   Inner-Iter.     Column Row Layer    Maximum-Head-Change  Column Row Layer    Maximum-Flux-Residual          L2-NORM 
          0                 1           2             2    2     1       0.8020464734E-02       2    2    1         0.4174580168E+00      0.1557974865E+01
          0                 2           2             2   13     1       0.1979825170E-02       2   13    1         0.1130803189E+00      0.4041284468E+00
          0                 3           2             4    6     1      -0.7242738882E-01       4    6    1        -0.3993663863E+01      0.3995408594E+01
          0                 4           2             4    6     1       0.6404582008E-01       4    6    1         0.3564122766E+01      0.3568339727E+01
          0                 5           2             4    6     1       0.7023022561E-02       4    6    1         0.3901988467E+00      0.3916434572E+00
          0                 6           2             4    6     1       0.1242734902E-02       4    6    1         0.6895540869E-01      0.7001233105E-01
          0                 7           2             4    6     1       0.2204298401E-03       4    6    1         0.1220837704E-01      0.1318764114E-01
          0                 8           1             4    6     1       0.3925391511E-04       4    6    1         0.2167145398E-02      0.3065277364E-02
          0                 9           1             3    6     1       0.1507828832E-04       3    6    1         0.4055544894E-03      0.1038088935E-02
          0                10           1             3    6     1       0.6775955122E-05       3    6    1         0.1826887228E-03      0.4364871496E-03

    ------------------------------------------------
       NWT REQUIRED           10 OUTER ITERATIONS 
       AND A TOTAL OF         17 INNER ITERATIONS.
    ------------------------------------------------

 NO OUTPUT CONTROL FOR STRESS PERIOD   19   TIME STEP   21
 
 SOLVING FOR HEAD 
                                                   Max.-Head-Change                         Max.-Flux-Residual
  Residual-Control   Outer-Iter.   Inner-Iter.     Column Row Layer    Maximum-Head-Change  Column Row Layer    Maximum-Flux-Residual          L2-NORM 
          0                 1           2             2    2     1       0.8000547913E-02       2    2    1         0.4164113116E+00      0.1553199934E+01
          0                 2           2             2   13     1       0.1974765638E-02       2   13    1         0.1127957171E+00      0.4034914459E+00
          0                 3           2             4    6     1      -0.7242729671E-01       4    6    1        -0.3993661284E+01      0.3995404615E+01
          0                 4           2             4    6     1       0.4155473326E-01       4    6    1         0.2312732971E+01      0.2315714505E+01
     PET DIFF ERROR     6    5   -0.1970248910E-08    0.2999999804E-07
     PET DIFF ERROR     7    4   -0.1970350942E-08    0.2999999804E-07
     PET DIFF ERROR     7    5   -0.1970248763E-08    0.2999999804E-07
     PET DIFF ERROR     8    4   -0.1890462253E-08    0.2999999804E-07
     PET DIFF ERROR     8    5   -0.1970260731E-08    0.2999999804E-07
          0                 5           2             4    6     1       0.2957821354E-01       4    6    1         0.1645386134E+01      0.1647551433E+01
          0                 6           2             4    6     1       0.1188715734E-02       4    6    1         0.6576057582E-01      0.6820590382E-01
          0                 7           2             4    6     1       0.2118296418E-03       4    6    1         0.1169352583E-01      0.1303499581E-01
          0                 8           1             3    6     1       0.4463694228E-04       4    6    1         0.2085680694E-02      0.3143880294E-02
          0                 9           1             3    6     1       0.2007409659E-04       3    6    1         0.5410359798E-03      0.1098349204E-02
          0                10           1             3    6     1       0.9005009498E-05       3    6    1         0.2431186188E-03      0.4658505495E-03

    ------------------------------------------------
       NWT REQUIRED           10 OUTER ITERATIONS 
       AND A TOTAL OF         17 INNER ITERATIONS.
    ------------------------------------------------

 NO OUTPUT CONTROL FOR STRESS PERIOD   19   TIME STEP   22
 
 SOLVING FOR HEAD 
                                                   Max.-Head-Change                         Max.-Flux-Residual
  Residual-Control   Outer-Iter.   Inner-Iter.     Column Row Layer    Maximum-Head-Change  Column Row Layer    Maximum-Flux-Residual          L2-NORM 
          0                 1           2             2    2     1       0.7981062751E-02       2    2    1         0.4153873055E+00      0.1548595891E+01
          0                 2           2             2   13     1       0.1970586992E-02       2   13    1         0.1125597256E+00      0.4028865807E+00
          0                 3           2             4    6     1      -0.7242719624E-01       4    6    1        -0.3993658266E+01      0.3995400187E+01
          0                 4           2             4    6     1       0.2586848651E-01       4    6    1         0.1439959534E+01      0.1442312928E+01
          0                 5           2             4    6     1       0.4608725210E-01       4    6    1         0.2564098028E+01      0.2564656905E+01
          0                 6           2             4    6     1       0.5103102440E-03       4    6    1         0.2787472120E-01      0.3523625080E-01
          0                 7           1             3    6     1       0.1138451832E-03       4    6    1         0.5048500458E-02      0.8055740426E-02
          0                 8           1             3    6     1       0.5116715688E-04       3    6    1         0.1379722516E-02      0.2633736482E-02
          0                 9           1             3    6     1       0.2294173710E-04       3    6    1         0.6196380359E-03      0.1090526437E-02
          0                10           1             3    6     1       0.1027661259E-04       3    6    1         0.2777391031E-03      0.4815273192E-03
          0                11           1             3    6     1       0.4601666211E-05       3    6    1         0.1243948619E-03      0.2151869673E-03

    ------------------------------------------------
       NWT REQUIRED           11 OUTER ITERATIONS 
       AND A TOTAL OF         17 INNER ITERATIONS.
    ------------------------------------------------

 NO OUTPUT CONTROL FOR STRESS PERIOD   19   TIME STEP   23
 
 SOLVING FOR HEAD 
     PET DIFF ERROR     6    4   -0.1559238729E-08    0.2999999804E-07
     PET DIFF ERROR     6    5   -0.1554598462E-08    0.2999999804E-07
     PET DIFF ERROR     7    4   -0.1554732888E-08    0.2999999804E-07
     PET DIFF ERROR     7    5   -0.1554598550E-08    0.2999999804E-07
     PET DIFF ERROR     8    4   -0.1555227117E-08    0.2999999804E-07
     PET DIFF ERROR     8    5   -0.1554598304E-08    0.2999999804E-07
                                                   Max.-Head-Change                         Max.-Flux-Residual
  Residual-Control   Outer-Iter.   Inner-Iter.     Column Row Layer    Maximum-Head-Change  Column Row Layer    Maximum-Flux-Residual          L2-NORM 
          0                 1           2             2    2     1       0.7961823901E-02       2    2    1         0.4143763392E+00      0.1544599865E+01
          0                 2           2             2    3     1       0.1909395670E-02       2   13    1         0.1072677453E+00      0.3976541574E+00
          0                 3           2             4    6     1      -0.6885641879E-01       4    6    1        -0.3796787815E+01      0.3798614633E+01
          0                 4           2             4    6     1       0.7059930462E-01       4    6    1         0.3928725067E+01      0.3933366866E+01
          0                 5           2             4    6     1      -0.1301746655E-02       4    6    1        -0.7372533847E-01      0.8152379207E-01
          0                 6           2             4    6     1      -0.2363235293E-03       4    6    1        -0.1338662656E-01      0.1723042732E-01
          0                 7           1             3    6     1       0.5497299041E-04       4    6    1        -0.2429935928E-02      0.5213499531E-02
          0                 8           1             3    6     1       0.2459503802E-04       3    6    1         0.6650958466E-03      0.2098537786E-02
          0                 9           1             3    6     1       0.1102917758E-04       3    6    1         0.2977509488E-03      0.9214018856E-03
          0                10           1             3    6     1       0.4950372352E-05       3    6    1         0.1335528081E-03      0.4113407336E-03

    ------------------------------------------------
       NWT REQUIRED           10 OUTER ITERATIONS 
       AND A TOTAL OF         16 INNER ITERATIONS.
    ------------------------------------------------

 NO OUTPUT CONTROL FOR STRESS PERIOD   19   TIME STEP   24
 
 SOLVING FOR HEAD 
                                                   Max.-Head-Change                         Max.-Flux-Residual
  Residual-Control   Outer-Iter.   Inner-Iter.     Column Row Layer    Maximum-Head-Change  Column Row Layer    Maximum-Flux-Residual          L2-NORM 
          0                 1           2             2    2     1       0.7942909019E-02       2    2    1         0.4133824504E+00      0.1540524620E+01
          0                 2           2             2   13     1       0.1967363590E-02       2   13    1         0.1123805883E+00      0.4020073889E+00
          0                 3           2             4    6     1      -0.7242700369E-01       4    6    1        -0.3993652649E+01      0.3995391945E+01
          0                 4           2             4    6     1       0.6265218506E-01       4    6    1         0.3486589654E+01      0.3490732058E+01
          0                 5           2             4    6     1       0.8170532154E-02       4    6    1         0.4540609139E+00      0.4554333008E+00
          0                 6           2             4    6     1       0.1445241423E-02       4    6    1         0.8021365711E-01      0.8115635375E-01
          0                 7           2             4    6     1       0.2562236169E-03       4    6    1         0.1419601251E-01      0.1506627914E-01
          0                 8           1             4    6     1       0.4559266870E-04       4    6    1         0.2518632013E-02      0.3333783982E-02
          0                 9           1             3    6     1       0.1559359597E-04       4    6    1         0.4487371079E-03      0.1068056348E-02
          0                10           1             3    6     1       0.7008432671E-05       3    6    1         0.1889435322E-03      0.4407401965E-03

    ------------------------------------------------
       NWT REQUIRED           10 OUTER ITERATIONS 
       AND A TOTAL OF         17 INNER ITERATIONS.
    ------------------------------------------------

 NO OUTPUT CONTROL FOR STRESS PERIOD   19   TIME STEP   25
 
 SOLVING FOR HEAD 
                                                   Max.-Head-Change                         Max.-Flux-Residual
  Residual-Control   Outer-Iter.   Inner-Iter.     Column Row Layer    Maximum-Head-Change  Column Row Layer    Maximum-Flux-Residual          L2-NORM 
          0                 1           2             2    2     1       0.7924314324E-02       2    2    1         0.4124054187E+00      0.1536672805E+01
          0                 2           2             2   13     1       0.1963366648E-02       2   13    1         0.1121544357E+00      0.4014517344E+00
          0                 3           2             4    6     1      -0.7242690444E-01       4    6    1        -0.3993649653E+01      0.3995387116E+01
          0                 4           2             4    6     1       0.4061244724E-01       4    6    1         0.2260309797E+01      0.2263248169E+01
     PET DIFF ERROR     6    5   -0.2392342655E-08    0.2999999804E-07
     PET DIFF ERROR     7    4   -0.2392494244E-08    0.2999999804E-07
     PET DIFF ERROR     7    5   -0.2392342590E-08    0.2999999804E-07
     PET DIFF ERROR     8    4   -0.2331782358E-08    0.2999999804E-07
     PET DIFF ERROR     8    5   -0.2392351613E-08    0.2999999804E-07
          0                 5           2             4    6     1       0.2890942060E-01       4    6    1         0.1608188531E+01      0.1610314628E+01
          0                 6           2             4    6     1       0.2515240326E-02       4    6    1         0.1395760305E+00      0.1405839628E+00
          0                 7           2             4    6     1       0.4459605933E-03       4    6    1         0.2470813695E-01      0.2542726176E-01
          0                 8           1             4    6     1       0.7932256474E-04       4    6    1         0.4383729016E-02      0.5013597579E-02
          0                 9           1             3    6     1       0.2157248853E-04       4    6    1         0.7805738048E-03      0.1315194668E-02
          0                10           1             3    6     1       0.9689957315E-05       3    6    1         0.2613820456E-03      0.4914714776E-03

    ------------------------------------------------
       NWT REQUIRED           10 OUTER ITERATIONS 
       AND A TOTAL OF         17 INNER ITERATIONS.
    ------------------------------------------------

 NO OUTPUT CONTROL FOR STRESS PERIOD   19   TIME STEP   26
 
 SOLVING FOR HEAD 
                                                   Max.-Head-Change                         Max.-Flux-Residual
  Residual-Control   Outer-Iter.   Inner-Iter.     Column Row Layer    Maximum-Head-Change  Column Row Layer    Maximum-Flux-Residual          L2-NORM 
          0                 1           2             2    2     1       0.7906033434E-02       2    2    1         0.4114449064E+00      0.1532884849E+01
          0                 2           2             2   13     1       0.1959668676E-02       2   13    1         0.1119450906E+00      0.4009047209E+00
          0                 3           2             4    6     1      -0.7242680530E-01       4    6    1        -0.3993646668E+01      0.3995382346E+01
          0                 4           2             4    6     1       0.2518937026E-01       4    6    1         0.1402176995E+01      0.1404514777E+01
          0                 5           2             4    6     1       0.4684494480E-01       4    6    1         0.2606268339E+01      0.2606792406E+01
          0                 6           2             4    6     1       0.4454735899E-03       4    6    1         0.2426075766E-01      0.3258791901E-01
          0                 7           1             3    6     1       0.1144093961E-03       4    6    1         0.4412870856E-02      0.7684768627E-02
          0                 8           1             3    6     1       0.5139364055E-04       3    6    1         0.1386333491E-02      0.2598006764E-02
          0                 9           1             3    6     1       0.2303836628E-04       3    6    1         0.6223401584E-03      0.1088080504E-02
          0                10           1             3    6     1       0.1031896115E-04       3    6    1         0.2789014322E-03      0.4815035107E-03
          0                11           1             3    6     1       0.4620433169E-05       3    6    1         0.1249060042E-03      0.2152510442E-03

    ------------------------------------------------
       NWT REQUIRED           11 OUTER ITERATIONS 
       AND A TOTAL OF         17 INNER ITERATIONS.
    ------------------------------------------------

 NO OUTPUT CONTROL FOR STRESS PERIOD   19   TIME STEP   27
 
 SOLVING FOR HEAD 
     PET DIFF ERROR     6    4   -0.6845280766E-09    0.2999999804E-07
     PET DIFF ERROR     6    5   -0.6711662825E-09    0.2999999804E-07
     PET DIFF ERROR     7    4   -0.6712214592E-09    0.2999999804E-07
     PET DIFF ERROR     7    5   -0.6711663299E-09    0.2999999804E-07
     PET DIFF ERROR     8    4   -0.6758873264E-09    0.2999999804E-07
     PET DIFF ERROR     8    5   -0.6711655789E-09    0.2999999804E-07
                                                   Max.-Head-Change                         Max.-Flux-Residual
  Residual-Control   Outer-Iter.   Inner-Iter.     Column Row Layer    Maximum-Head-Change  Column Row Layer    Maximum-Flux-Residual          L2-NORM 
          0                 1           2             2    2     1       0.7887972279E-02       2    2    1         0.4104960505E+00      0.1529757265E+01
          0                 2           2             2   13     1       0.1922250227E-02       2   13    1         0.1098081552E+00      0.3986298996E+00
          0                 3           2             4    6     1      -0.7092561072E-01       4    6    1        -0.3910881396E+01      0.3912650907E+01
          0                 4           2             4    6     1       0.7283197011E-01       4    6    1         0.4052979961E+01      0.4057743314E+01
          0                 5           2             4    6     1      -0.1435032292E-02       4    6    1        -0.8122862027E-01      0.8861957312E-01
          0                 6           2             4    6     1      -0.2607561353E-03       4    6    1        -0.1476092402E-01      0.1833771440E-01
          0                 7           1             3    6     1       0.5577743244E-04       4    6    1        -0.2681935091E-02      0.5337550983E-02
          0                 8           1             3    6     1       0.2494416638E-04       3    6    1         0.6747532035E-03      0.2109190623E-02
          0                 9           1             3    6     1       0.1118320613E-04       3    6    1         0.3019609568E-03      0.9223351960E-03
          0                10           1             3    6     1       0.5018802884E-05       3    6    1         0.1354137044E-03      0.4114191856E-03

    ------------------------------------------------
       NWT REQUIRED           10 OUTER ITERATIONS 
       AND A TOTAL OF         16 INNER ITERATIONS.
    ------------------------------------------------

 NO OUTPUT CONTROL FOR STRESS PERIOD   19   TIME STEP   28
 
 SOLVING FOR HEAD 
                                                   Max.-Head-Change                         Max.-Flux-Residual
  Residual-Control   Outer-Iter.   Inner-Iter.     Column Row Layer    Maximum-Head-Change  Column Row Layer    Maximum-Flux-Residual          L2-NORM 
          0                 1           2             2    2     1       0.7755933937E-02       2    2    1         0.4035820785E+00      0.1524396719E+01
          0                 2           2             2   13     1       0.1995908737E-02       2   13    1         0.1140056547E+00      0.4015625744E+00
          0                 3           2             4    6     1      -0.7242661836E-01       4    6    1        -0.3993641266E+01      0.3995373963E+01
          0                 4           2             4    6     1       0.6610878111E-01       4    6    1         0.3678921551E+01      0.3683261308E+01
          0                 5           2             4    6     1       0.5324074280E-02       4    6    1         0.2956502445E+00      0.2973562055E+00
          0                 6           2             4    6     1       0.9429024492E-03       4    6    1         0.5228676486E-01      0.5360075514E-01
          0                 7           2             4    6     1       0.1674319450E-03       4    6    1         0.9265439542E-02      0.1047636104E-01
          0                 8           1             3    6     1       0.3182675931E-04       4    6    1         0.1646714578E-02      0.2698338268E-02
          0                 9           1             3    6     1       0.1433979869E-04       3    6    1         0.3859220247E-03      0.9963379156E-03
          0                10           1             3    6     1       0.6442739350E-05       3    6    1         0.1737243213E-03      0.4292148062E-03

    ------------------------------------------------
       NWT REQUIRED           10 OUTER ITERATIONS 
       AND A TOTAL OF         17 INNER ITERATIONS.
    ------------------------------------------------

 NO OUTPUT CONTROL FOR STRESS PERIOD   19   TIME STEP   29
 
 SOLVING FOR HEAD 
                                                   Max.-Head-Change                         Max.-Flux-Residual
  Residual-Control   Outer-Iter.   Inner-Iter.     Column Row Layer    Maximum-Head-Change  Column Row Layer    Maximum-Flux-Residual          L2-NORM 
          0                 1           2             2   13     1      -0.1336033464E-01       2   13    1        -0.7522232848E+00      0.1961562336E+01
          0                 2           2             5   13     1       0.3138549454E-02       2   13    1         0.1738837750E+00      0.4795072284E+00
          0                 3           2             4    6     1      -0.7242658913E-01       4    6    1        -0.3993640471E+01      0.3995426362E+01
          0                 4           2             4    6     1       0.4294331155E-01       4    6    1         0.2390003986E+01      0.2393898973E+01
     PET DIFF ERROR     6    5   -0.2186536605E-08    0.2999999804E-07
     PET DIFF ERROR     7    4   -0.2186714631E-08    0.2999999804E-07
     PET DIFF ERROR     7    5   -0.2186536546E-08    0.2999999804E-07
     PET DIFF ERROR     8    4   -0.2121616694E-08    0.2999999804E-07
     PET DIFF ERROR     8    5   -0.2186546231E-08    0.2999999804E-07
          0                 5           2             4    6     1       0.2807402148E-01       4    6    1         0.1561686930E+01      0.1564477681E+01
          0                 6           2             4    6     1       0.1283779488E-02       4    6    1         0.7106291390E-01      0.7330221441E-01
          0                 7           2             4    6     1       0.2285471114E-03       4    6    1         0.1262520516E-01      0.1387168982E-01
          0                 8           1             3    6     1       0.4416194750E-04       4    6    1         0.2249573580E-02      0.3284719886E-02
          0                 9           1             3    6     1       0.1986872216E-04       3    6    1         0.5353457401E-03      0.1103052710E-02
          0                10           1             3    6     1       0.8914525317E-05       3    6    1         0.2406441012E-03      0.4638634792E-03

    ------------------------------------------------
       NWT REQUIRED           10 OUTER ITERATIONS 
       AND A TOTAL OF         17 INNER ITERATIONS.
    ------------------------------------------------

 NO OUTPUT CONTROL FOR STRESS PERIOD   19   TIME STEP   30



 STREAM LISTING     PERIOD     19   STEP       30

 LAYER ROW COL. STREAM  RCH.  FLOW INTO     FLOW TO   FLOW OUT OF   OVRLND.     DIRECT     STREAM       STREAM     STREAM     STREAM   STREAMBED  STREAMBED
                SEG.NO.  NO.  STRM. RCH.    AQUIFER    STRM. RCH.    RUNOFF     PRECIP       ET          HEAD       DEPTH      WIDTH   CONDCTNC.   GRADIENT

   1    1    1     1     1    2.8000E+01  2.5860E-01   2.7741E+01  0.000E+00  0.000E+00  0.000E+00  1.09427E+03  1.221E+00  1.361E+01  6.126E-02  1.407E+00
   1    2    2     1     2    2.7741E+01  4.0002E-01   2.7341E+01  0.000E+00  0.000E+00  0.000E+00  1.08928E+03  1.217E+00  1.355E+01  9.487E-02  1.406E+00
   1    3    3     1     3    2.7341E+01  3.4070E-01   2.7001E+01  0.000E+00  0.000E+00  0.000E+00  1.08363E+03  1.212E+00  1.348E+01  8.090E-02  1.404E+00
   1    3    4     1     4    2.7001E+01  3.1335E-01   2.6687E+01  0.000E+00  0.000E+00  0.000E+00  1.07861E+03  1.207E+00  1.342E+01  7.448E-02  1.402E+00
   1    4    5     2     1    2.4687E+01  3.2711E-01   2.4360E+01  0.000E+00  0.000E+00  0.000E+00  1.07313E+03  1.194E+00  1.200E+01  7.800E-02  1.398E+00
   1    5    6     2     2    2.4360E+01  2.5111E-01   2.4109E+01  0.000E+00  0.000E+00  0.000E+00  1.06769E+03  1.185E+00  1.200E+01  6.000E-02  1.395E+00
   1    6    6     2     3    2.4109E+01  2.5067E-01   2.3858E+01  0.000E+00  0.000E+00  0.000E+00  1.06297E+03  1.178E+00  1.200E+01  6.000E-02  1.393E+00
   1    7    6     2     4    2.3858E+01  2.5023E-01   2.3608E+01  0.000E+00  0.000E+00  0.000E+00  1.05825E+03  1.170E+00  1.200E+01  6.000E-02  1.390E+00
   1    8    6     2     5    2.3608E+01  2.4978E-01   2.3358E+01  0.000E+00  0.000E+00  0.000E+00  1.05352E+03  1.163E+00  1.200E+01  6.000E-02  1.388E+00
   1    3    5     3     1    2.0000E+00  2.8252E-01   1.7175E+00  0.000E+00  0.000E+00  0.000E+00  1.07555E+03  1.909E+00  9.636E+00  7.227E-02  1.955E+00
   1    3    6     3     2    1.7175E+00  2.4905E-01   1.4684E+00  0.000E+00  0.000E+00  0.000E+00  1.07264E+03  1.727E+00  8.909E+00  6.682E-02  1.864E+00
   1    3    7     3     3    1.4684E+00  1.9718E-01   1.2712E+00  0.000E+00  0.000E+00  0.000E+00  1.06987E+03  1.555E+00  8.218E+00  5.547E-02  1.777E+00
   1    4    8     3     4    1.2712E+00  2.2567E-01   1.0456E+00  0.000E+00  0.000E+00  0.000E+00  1.06682E+03  1.364E+00  7.455E+00  6.709E-02  1.682E+00
   1    5    8     3     5    1.0456E+00  1.5790E-01   8.8768E-01  0.000E+00  0.000E+00  0.000E+00  1.06362E+03  1.164E+00  6.655E+00  4.991E-02  1.582E+00
   1    6    8     3     6    8.8768E-01  5.5980E-02   8.3170E-01  0.000E+00  0.000E+00  0.000E+00  1.06158E+03  1.036E+00  6.145E+00  1.844E-02  1.518E+00
   1    5   10     4     1    1.0000E+01  9.0919E-02   9.9091E+00  0.000E+00  0.000E+00  0.000E+00  1.07836E+03  6.368E-01  1.000E+01  2.500E-02  1.212E+00
   1    5    9     4     2    9.9091E+00  1.8158E-01   9.7275E+00  0.000E+00  0.000E+00  0.000E+00  1.07154E+03  6.315E-01  1.000E+01  5.000E-02  1.211E+00
   1    6    8     4     3    9.7275E+00  1.2689E-01   9.6006E+00  0.000E+00  0.000E+00  0.000E+00  1.06381E+03  6.256E-01  1.000E+01  3.500E-02  1.209E+00
   1    6    8     5     1    1.0432E+01  2.2686E-01   1.0205E+01  0.000E+00  0.000E+00  0.000E+00  1.05868E+03  6.790E-01  1.542E+01  6.166E-02  1.226E+00
   1    7    7     5     2    1.0205E+01  2.7894E-01   9.9265E+00  0.000E+00  0.000E+00  0.000E+00  1.05417E+03  6.732E-01  1.519E+01  7.594E-02  1.224E+00
   1    8    7     5     3    9.9265E+00  1.9221E-01   9.7343E+00  0.000E+00  0.000E+00  0.000E+00  1.04992E+03  6.676E-01  1.497E+01  5.241E-02  1.223E+00
   1    8    6     5     4    9.7343E+00  1.3577E-01   9.5985E+00  0.000E+00  0.000E+00  0.000E+00  1.04691E+03  6.637E-01  1.482E+01  3.706E-02  1.221E+00
   1    9    6     6     1    2.7957E+01  2.5813E-01   2.7699E+01  0.000E+00  0.000E+00  0.000E+00  1.04403E+03  1.302E+00  1.200E+01  6.000E-02  1.434E+00
   1   10    7     6     2    2.7699E+01  2.5769E-01   2.7441E+01  0.000E+00  0.000E+00  0.000E+00  1.03948E+03  1.295E+00  1.200E+01  6.000E-02  1.432E+00
   1   11    7     6     3    2.7441E+01  2.5726E-01   2.7184E+01  0.000E+00  0.000E+00  0.000E+00  1.03492E+03  1.288E+00  1.200E+01  6.000E-02  1.429E+00
   1   12    7     6     4    2.7184E+01  2.5682E-01   2.6927E+01  0.000E+00  0.000E+00  0.000E+00  1.03037E+03  1.280E+00  1.200E+01  6.000E-02  1.427E+00
   1   13    7     6     5    2.6927E+01 -5.3808E-02   2.6981E+01  0.000E+00  0.000E+00  0.000E+00  1.02719E+03  1.277E+00  1.200E+01  2.400E-01 -7.473E-02
   1   14    9     7     1    1.5000E+02  1.1634E+00   1.4884E+02  0.000E+00  0.000E+00  0.000E+00  1.03987E+03  2.288E+00  5.530E+01  5.593E-01  6.933E-01
   1   13    8     7     2    1.4884E+02  1.5809E+00   1.4726E+02  0.000E+00  0.000E+00  0.000E+00  1.03478E+03  2.281E+00  5.526E+01  6.149E-01  8.571E-01
   1   13    7     7     3    1.4726E+02  1.2746E+00   1.4598E+02  0.000E+00  0.000E+00  0.000E+00  1.02969E+03  2.273E+00  5.523E+01  5.586E-01  7.606E-01
   1   13    6     8     1    1.7296E+02  7.1873E-01   1.7224E+02  0.000E+00  0.000E+00  0.000E+00  1.02484E+03  2.969E+00  4.305E+01  4.387E-01  5.461E-01
   1   13    5     8     2    1.7224E+02 -1.3277E-01   1.7238E+02  0.000E+00  0.000E+00  0.000E+00  1.01859E+03  2.967E+00  4.302E+01  4.384E+00 -1.009E-02
   1   13    4     8     3    1.7238E+02 -3.3882E+00   1.7576E+02  0.000E+00  0.000E+00  0.000E+00  1.01235E+03  2.979E+00  4.319E+01  4.401E+00 -2.566E-01
   1   13    3     8     4    1.7576E+02 -4.2359E+00   1.8000E+02  0.000E+00  0.000E+00  0.000E+00  1.00613E+03  3.003E+00  4.354E+01  4.437E+00 -3.182E-01
   1   13    2     8     5    1.8000E+02 -2.7645E+00   1.8276E+02  0.000E+00  0.000E+00  0.000E+00  9.99900E+02  3.025E+00  4.386E+01  4.469E+00 -2.062E-01
   1   13    1     8     6    1.8276E+02 -1.8540E+00   1.8462E+02  0.000E+00  0.000E+00  0.000E+00  9.94914E+02  3.039E+00  4.407E+01  2.694E+00 -2.294E-01
   1    6    8     9     1    5.0000E+00  0.0000E+00   5.0000E+00  0.000E+00  0.000E+00  0.000E+00  1.07886E+03  3.555E-01  4.000E+00  0.000E+00  1.119E+00





UNSATURATED ZONE PACKAGE VOLUMETRIC BUDGET FOR  TIME STEP    30 STRESS PERIOD   19
  ------------------------------------------------------------------------------



     CUMULATIVE VOLUMES      L**3       RATES FOR THIS TIME STEP      L**3/T
     ------------------                 ------------------------

           IN:                                      IN:
           ---                                      ---
        INFILTRATION =    41089578.8854          INFILTRATION =           5.0001

          OUT:                                     OUT:
          ----                                     ----
              UZF ET =   567995458.5848                UZF ET =           4.5000
        UZF RECHARGE =  1101280511.8818          UZF RECHARGE =          19.8388

            IN - OUT = -1628186391.5813              IN - OUT =         -19.3387

          STORAGE:                                 STORAGE:
          --------                                 --------
      STORAGE CHANGE = -1628160903.7873        STORAGE CHANGE =         -19.3387

 PERCENT DISCREPANCY IS DIFFERENCE BETWEEN IN-OUT MINUS CHANGE IN STORAGE
 DIVIDED BY THE AVERAGE OF IN AND OUT TIMES 100

 PERCENT DISCREPANCY =          -0.00     PERCENT DISCREPANCY =           0.00






1
  VOLUMETRIC BUDGET FOR ENTIRE MODEL AT END OF TIME STEP   30, STRESS PERIOD  19
  ------------------------------------------------------------------------------

     CUMULATIVE VOLUMES      L**3       RATES FOR THIS TIME STEP      L**3/T
     ------------------                 ------------------------

           IN:                                      IN:
           ---                                      ---
             STORAGE     =    41336944.0000               STORAGE     =           3.7996
       CONSTANT HEAD     =           0.0000         CONSTANT HEAD     =           0.0000
               WELLS     =           0.0000                 WELLS     =           0.0000
     HEAD DEP BOUNDS     =    13043071.0000       HEAD DEP BOUNDS     =           0.2740
      STREAM LEAKAGE     =   529061856.0000        STREAM LEAKAGE     =          10.8106
        UZF RECHARGE     =  1101280768.0000          UZF RECHARGE     =          19.8388
               GW ET     =           0.0000                 GW ET     =           0.0000
     SURFACE LEAKAGE     =           0.0000       SURFACE LEAKAGE     =           0.0000
    SUPPLEMENTARY WELLS  =           0.0000      SUPPLEMENTARY WELLS  =           0.0000

                TOTAL IN =  1684722688.0000                  TOTAL IN =          34.7230

          OUT:                                     OUT:
          ----                                     ----
             STORAGE     =  1045597184.0000               STORAGE     =          16.7537
       CONSTANT HEAD     =           0.0000         CONSTANT HEAD     =           0.0000
               WELLS     =           0.0000                 WELLS     =           0.0000
     HEAD DEP BOUNDS     =    13703670.0000       HEAD DEP BOUNDS     =           0.2889
      STREAM LEAKAGE     =   520196256.0000        STREAM LEAKAGE     =          12.4292
        UZF RECHARGE     =           0.0000          UZF RECHARGE     =           0.0000
               GW ET     =   105026448.0000                 GW ET     =           5.2500
     SURFACE LEAKAGE     =           0.0000       SURFACE LEAKAGE     =           0.0000
    SUPPLEMENTARY WELLS  =       38908.9648      SUPPLEMENTARY WELLS  =           0.0000

               TOTAL OUT =  1684562432.0000                 TOTAL OUT =          34.7218

                IN - OUT =      160256.0000                  IN - OUT =       1.2627E-03

     PERCENT DISCREPANCY =           0.01         PERCENT DISCREPANCY =           0.00






         TIME SUMMARY AT END OF TIME STEP   30 IN STRESS PERIOD   19
                    SECONDS     MINUTES      HOURS       DAYS        YEARS
                    -----------------------------------------------------------
   TIME STEP LENGTH  87600.      1460.0      24.333      1.0139     2.77588E-03
 STRESS PERIOD TIME 2.62800E+06  43800.      730.00      30.417     8.32763E-02
         TOTAL TIME 4.73904E+07 7.89840E+05  13164.      548.50      1.5017    
1
1
                            STRESS PERIOD NO.   20, LENGTH =   2628000.    
                            -----------------------------------------------

                              NUMBER OF TIME STEPS =    30

                               MULTIPLIER FOR DELT =     1.000

                            INITIAL TIME STEP SIZE =   87600.00    

 WELL NO.  LAYER   ROW   COL   STRESS RATE         
 --------------------------------------------------
      1      1      6      4       0.000    
      2      1      6      7       0.000    
      3      1      7      4       0.000    
      4      1      7      5       0.000    
      5      1      8      4       0.000    
      6      1      8      5       0.000    
      7      1      9      4       0.000    
      8      1      9      5       0.000    
      9      1     10      4       0.000    
     10      1     10      5       0.000    

     10 WELLS

 REUSING NON-PARAMETER GHB CELLS FROM LAST STRESS PERIOD

      2 GHB CELLS

 REUSING STREAM SEGMENT DATA FROM LAST STRESS PERIOD



            AREAL INFILTRATION RATE
 READING ON UNIT   19 WITH FORMAT: (10F4.0)            

            1           2           3           4           5           6           7           8           9          10
 ........................................................................................................................
   1    0.000       0.000       0.000       0.000       0.000       0.000       0.000       0.000       0.000       0.000    
   2    0.000       0.000       0.000       0.000       0.000       0.000       0.000       0.000       0.000       0.000    
   3    0.000       0.000       0.000       0.000       0.000       0.000       0.000       0.000       0.000       0.000    
   4    0.000       0.000       0.000       0.000       0.000       0.000       0.000       0.000       0.000       0.000    
   5    0.000       0.000       0.000       0.000       0.000       0.000       0.000       0.000       0.000       0.000    
   6    0.000       0.000       0.000       0.000       0.000       0.000       0.000       0.000       0.000       0.000    
   7    0.000       0.000       0.000       0.000       0.000       0.000       0.000       0.000       0.000       0.000    
   8    0.000       0.000       0.000       0.000       0.000       0.000       0.000       0.000       0.000       0.000    
   9    0.000       0.000       0.000       0.000       0.000       0.000       0.000       0.000       0.000       0.000    
  10    0.000       0.000       0.000       0.000       0.000       0.000       0.000       0.000       0.000       0.000    
  11    0.000       0.000       0.000       0.000       0.000       0.000       0.000       0.000       0.000       0.000    
  12    0.000       0.000       0.000       0.000       0.000       0.000       0.000       0.000       0.000       0.000    
  13    0.000       0.000       0.000       0.000       0.000       0.000       0.000       0.000       0.000       0.000    
  14    0.000       0.000       0.000       0.000       0.000       0.000       0.000       0.000       0.000       0.000    
  15    0.000       0.000       0.000       0.000       0.000       0.000       0.000       0.000       0.000       0.000    

                  ET RATE =  6.000000E-08

 USING ET EXTINCTION DEPTH FROM PREVIOUS STRESS PERIOD. CURRENT PERIOD IS:      20

 USING EXTINCTION WATER CONTENT FROM PREVIOUS STRESS PERIOD. CURRENT PERIOD IS:      20

 PROCESSING AGO STRESS PERIOD DATA

 READING AGO STRESS PERIOD DATA

 READING IRRIGATION STREAM

 READING IRRIGATION WELL

 READING SUPPLEMENTAL WEL

 END PROCESSING AGO STRESS PERIOD DATA OPTIONS
 
 SOLVING FOR HEAD 
     PET DIFF ERROR     6    4   -0.7400742857E-08    0.5999999608E-07
     PET DIFF ERROR     6    5   -0.7720074023E-08    0.5999999608E-07
     PET DIFF ERROR     7    4   -0.7720463578E-08    0.5999999608E-07
     PET DIFF ERROR     7    5   -0.7720073930E-08    0.5999999608E-07
     PET DIFF ERROR     8    4   -0.7592543475E-08    0.5999999608E-07
     PET DIFF ERROR     8    5   -0.7720093005E-08    0.5999999608E-07
                                                   Max.-Head-Change                         Max.-Flux-Residual
  Residual-Control   Outer-Iter.   Inner-Iter.     Column Row Layer    Maximum-Head-Change  Column Row Layer    Maximum-Flux-Residual          L2-NORM 
          0                 1           2             2   13     1      -0.2572809108E-01       2   13    1        -0.1446219824E+01      0.3557951767E+01
     PET DIFF ERROR     6    4   -0.7400742857E-08    0.5999999608E-07
     PET DIFF ERROR     6    5   -0.7720074023E-08    0.5999999608E-07
     PET DIFF ERROR     7    4   -0.7720463578E-08    0.5999999608E-07
     PET DIFF ERROR     7    5   -0.7720073930E-08    0.5999999608E-07
     PET DIFF ERROR     8    4   -0.7592543475E-08    0.5999999608E-07
     PET DIFF ERROR     8    5   -0.7720093005E-08    0.5999999608E-07
          0                 2           2             4    6     1      -0.5278445783E-01       4    6    1        -0.2912221602E+01      0.2965813454E+01
          0                 3           2             4    6     1       0.1989883546E-01       4    6    1         0.1107293360E+01      0.1116560719E+01
          0                 4           2             4    6     1       0.3250396520E-01       4    6    1         0.1808289651E+01      0.1811793649E+01
     PET DIFF ERROR     6    4   -0.7400742857E-08    0.5999999608E-07
     PET DIFF ERROR     6    5   -0.7720074023E-08    0.5999999608E-07
     PET DIFF ERROR     7    4   -0.7720463578E-08    0.5999999608E-07
     PET DIFF ERROR     7    5   -0.7720073930E-08    0.5999999608E-07
     PET DIFF ERROR     8    4   -0.7592543475E-08    0.5999999608E-07
     PET DIFF ERROR     8    5   -0.7720093005E-08    0.5999999608E-07
          0                 5           2             4    6     1       0.1013625108E-02       4    6    1         0.5600265616E-01      0.6231459366E-01
     PET DIFF ERROR     6    4   -0.7400742857E-08    0.5999999608E-07
     PET DIFF ERROR     6    5   -0.7720074023E-08    0.5999999608E-07
     PET DIFF ERROR     7    4   -0.7720463578E-08    0.5999999608E-07
     PET DIFF ERROR     7    5   -0.7720073930E-08    0.5999999608E-07
     PET DIFF ERROR     8    4   -0.7592543475E-08    0.5999999608E-07
     PET DIFF ERROR     8    5   -0.7720093005E-08    0.5999999608E-07
          0                 6           2             4    6     1       0.1810592665E-03       4    6    1         0.9978083445E-02      0.1445923812E-01
     PET DIFF ERROR     6    4   -0.7400742857E-08    0.5999999608E-07
     PET DIFF ERROR     6    5   -0.7720074023E-08    0.5999999608E-07
     PET DIFF ERROR     7    4   -0.7720463578E-08    0.5999999608E-07
     PET DIFF ERROR     7    5   -0.7720073930E-08    0.5999999608E-07
     PET DIFF ERROR     8    4   -0.7592543475E-08    0.5999999608E-07
     PET DIFF ERROR     8    5   -0.7720093005E-08    0.5999999608E-07
          0                 7           1             3    6     1       0.5144807121E-04       4    6    1         0.1784597666E-02      0.4889245415E-02
     PET DIFF ERROR     6    4   -0.7400742857E-08    0.5999999608E-07
     PET DIFF ERROR     6    5   -0.7720074023E-08    0.5999999608E-07
     PET DIFF ERROR     7    4   -0.7720463578E-08    0.5999999608E-07
     PET DIFF ERROR     7    5   -0.7720073930E-08    0.5999999608E-07
     PET DIFF ERROR     8    4   -0.7592543475E-08    0.5999999608E-07
     PET DIFF ERROR     8    5   -0.7720093005E-08    0.5999999608E-07
          0                 8           1             3    6     1       0.2267052567E-04       3    6    1         0.5985759130E-03      0.2049037481E-02
     PET DIFF ERROR     6    4   -0.7400742857E-08    0.5999999608E-07
     PET DIFF ERROR     6    5   -0.7720074023E-08    0.5999999608E-07
     PET DIFF ERROR     7    4   -0.7720463578E-08    0.5999999608E-07
     PET DIFF ERROR     7    5   -0.7720073930E-08    0.5999999608E-07
     PET DIFF ERROR     8    4   -0.7592543475E-08    0.5999999608E-07
     PET DIFF ERROR     8    5   -0.7720093005E-08    0.5999999608E-07
          0                 9           1             3    6     1       0.9971823751E-05       3    6    1         0.2636097287E-03      0.9054873319E-03

    ------------------------------------------------
       NWT REQUIRED            9 OUTER ITERATIONS 
       AND A TOTAL OF         15 INNER ITERATIONS.
    ------------------------------------------------

 NO OUTPUT CONTROL FOR STRESS PERIOD   20   TIME STEP    1
     PET DIFF ERROR     6    4   -0.7400742857E-08    0.5999999608E-07
     PET DIFF ERROR     6    5   -0.7720074023E-08    0.5999999608E-07
     PET DIFF ERROR     7    4   -0.7720463578E-08    0.5999999608E-07
     PET DIFF ERROR     7    5   -0.7720073930E-08    0.5999999608E-07
     PET DIFF ERROR     8    4   -0.7592543475E-08    0.5999999608E-07
     PET DIFF ERROR     8    5   -0.7720093005E-08    0.5999999608E-07
 
 SOLVING FOR HEAD 
                                                   Max.-Head-Change                         Max.-Flux-Residual
  Residual-Control   Outer-Iter.   Inner-Iter.     Column Row Layer    Maximum-Head-Change  Column Row Layer    Maximum-Flux-Residual          L2-NORM 
          0                 1           2             2   13     1      -0.2390113978E-01       2   13    1        -0.1343292573E+01      0.3367246670E+01
          0                 2           2             2   13     1       0.2238224595E-02       4   13    1         0.1275576217E+00      0.4347984498E+00
          0                 3           2             2    3     1       0.8375003656E-03       2    3    1         0.2191411694E-01      0.1169985434E+00
          0                 4           2             8    2     1       0.3735268913E-03       2    3    1         0.9759220830E-02      0.4888623805E-01
          0                 5           2             8    2     1       0.1678478977E-03       8    2    1         0.4359785573E-02      0.2169169340E-01
          0                 6           1             8    2     1       0.7542401746E-04       8    2    1         0.1959111325E-02      0.9690468720E-02
          0                 7           1             8    2     1       0.3389246294E-04       8    2    1         0.8803448339E-03      0.4333699649E-02
          0                 8           1             8    2     1       0.1522987395E-04       8    2    1         0.3955908515E-03      0.1938634504E-02
          0                 9           1             8    2     1       0.6843671927E-05       8    2    1         0.1777621776E-03      0.8673605125E-03

    ------------------------------------------------
       NWT REQUIRED            9 OUTER ITERATIONS 
       AND A TOTAL OF         14 INNER ITERATIONS.
    ------------------------------------------------

 NO OUTPUT CONTROL FOR STRESS PERIOD   20   TIME STEP    2
 
 SOLVING FOR HEAD 
                                                   Max.-Head-Change                         Max.-Flux-Residual
  Residual-Control   Outer-Iter.   Inner-Iter.     Column Row Layer    Maximum-Head-Change  Column Row Layer    Maximum-Flux-Residual          L2-NORM 
          0                 1           2             2   13     1      -0.2220463480E-01       2   13    1        -0.1247731339E+01      0.3196511680E+01
          0                 2           2             2   13     1       0.2096867168E-02       2   13    1         0.1189267281E+00      0.4271397911E+00
          0                 3           2             2    3     1       0.8324198293E-03       2    3    1         0.2178058549E-01      0.1166928580E+00
          0                 4           2             8    2     1       0.3733082952E-03       2    3    1         0.9700077733E-02      0.4883491315E-01
          0                 5           2             8    2     1       0.1677497276E-03       8    2    1         0.4357234410E-02      0.2166828921E-01
          0                 6           1             8    2     1       0.7537992989E-04       8    2    1         0.1957965615E-02      0.9679447004E-02
          0                 7           1             8    2     1       0.3387266365E-04       8    2    1         0.8798303019E-03      0.4328588294E-02
          0                 8           1             8    2     1       0.1522098200E-04       8    2    1         0.3953597754E-03      0.1936291575E-02
          0                 9           1             8    2     1       0.6839678654E-05       8    2    1         0.1776584024E-03      0.8662955808E-03

    ------------------------------------------------
       NWT REQUIRED            9 OUTER ITERATIONS 
       AND A TOTAL OF         14 INNER ITERATIONS.
    ------------------------------------------------

 NO OUTPUT CONTROL FOR STRESS PERIOD   20   TIME STEP    3
 
 SOLVING FOR HEAD 
                                                   Max.-Head-Change                         Max.-Flux-Residual
  Residual-Control   Outer-Iter.   Inner-Iter.     Column Row Layer    Maximum-Head-Change  Column Row Layer    Maximum-Flux-Residual          L2-NORM 
          0                 1           2             2   13     1      -0.2061570111E-01       2   13    1        -0.1158250523E+01      0.3053851915E+01
          0                 2           2             2   13     1       0.1946105880E-02       2   13    1         0.1103654014E+00      0.4171156098E+00
          0                 3           2             8    2     1       0.8302936568E-03       2    3    1         0.2164894363E-01      0.1164032279E+00
          0                 4           2             8    2     1       0.3731009076E-03       8    2    1         0.9691144567E-02      0.4881766719E-01
          0                 5           2             8    2     1       0.1676565868E-03       8    2    1         0.4354814035E-02      0.2165869961E-01
          0                 6           1             8    2     1       0.7533809907E-04       8    2    1         0.1956878591E-02      0.9673849904E-02
          0                 7           1             8    2     1       0.3385387681E-04       8    2    1         0.8793421036E-03      0.4325604928E-02
          0                 8           1             8    2     1       0.1521254451E-04       8    2    1         0.3951405174E-03      0.1934784181E-02
          0                 9           1             8    2     1       0.6835889221E-05       8    2    1         0.1775599317E-03      0.8655589116E-03

    ------------------------------------------------
       NWT REQUIRED            9 OUTER ITERATIONS 
       AND A TOTAL OF         14 INNER ITERATIONS.
    ------------------------------------------------

 NO OUTPUT CONTROL FOR STRESS PERIOD   20   TIME STEP    4
 
 SOLVING FOR HEAD 
                                                   Max.-Head-Change                         Max.-Flux-Residual
  Residual-Control   Outer-Iter.   Inner-Iter.     Column Row Layer    Maximum-Head-Change  Column Row Layer    Maximum-Flux-Residual          L2-NORM 
          0                 1           2             2   13     1      -0.1914437738E-01       2   13    1        -0.1075403836E+01      0.2924008430E+01
          0                 2           2             6   13     1       0.1867660162E-02       2   13    1         0.1024416619E+00      0.4080514852E+00
          0                 3           2             8    2     1       0.8298101246E-03       8    2    1         0.2155396438E-01      0.1160741695E+00
          0                 4           2             8    2     1       0.3728837425E-03       8    2    1         0.9685501347E-02      0.4877226001E-01
          0                 5           2             8    2     1       0.1675590527E-03       8    2    1         0.4352279529E-02      0.2163875063E-01
          0                 6           1             8    2     1       0.7529429412E-04       8    2    1         0.1955740284E-02      0.9664538562E-02
          0                 7           1             8    2     1       0.3383420283E-04       8    2    1         0.8788308646E-03      0.4321300406E-02
          0                 8           1             8    2     1       0.1520370883E-04       8    2    1         0.3949109112E-03      0.1932809002E-02
          0                 9           1             8    2     1       0.6831920710E-05       8    2    1         0.1774568066E-03      0.8646586679E-03

    ------------------------------------------------
       NWT REQUIRED            9 OUTER ITERATIONS 
       AND A TOTAL OF         14 INNER ITERATIONS.
    ------------------------------------------------

 NO OUTPUT CONTROL FOR STRESS PERIOD   20   TIME STEP    5
 
 SOLVING FOR HEAD 
                                                   Max.-Head-Change                         Max.-Flux-Residual
  Residual-Control   Outer-Iter.   Inner-Iter.     Column Row Layer    Maximum-Head-Change  Column Row Layer    Maximum-Flux-Residual          L2-NORM 
          0                 1           2             6   13     1      -0.1847474352E-01       2   13    1        -0.9986896844E+00      0.2805915808E+01
          0                 2           2             8    2     1       0.1845573479E-02       6   13    1         0.9822491070E-01      0.3999713895E+00
          0                 3           2             8    2     1       0.8293282447E-03       8    2    1         0.2154144234E-01      0.1157772015E+00
          0                 4           2             8    2     1       0.3726673186E-03       8    2    1         0.9679877407E-02      0.4872754471E-01
          0                 5           2             8    2     1       0.1674618523E-03       8    2    1         0.4349753695E-02      0.2161892831E-01
          0                 6           1             8    2     1       0.7525063924E-04       8    2    1         0.1954605875E-02      0.9655289281E-02
          0                 7           1             8    2     1       0.3381459662E-04       8    2    1         0.8783213782E-03      0.4317024813E-02
          0                 8           1             8    2     1       0.1519490292E-04       8    2    1         0.3946820875E-03      0.1930849663E-02
          0                 9           1             8    2     1       0.6827965954E-05       8    2    1         0.1773540400E-03      0.8637657311E-03

    ------------------------------------------------
       NWT REQUIRED            9 OUTER ITERATIONS 
       AND A TOTAL OF         14 INNER ITERATIONS.
    ------------------------------------------------

 NO OUTPUT CONTROL FOR STRESS PERIOD   20   TIME STEP    6
 
 SOLVING FOR HEAD 
                                                   Max.-Head-Change                         Max.-Flux-Residual
  Residual-Control   Outer-Iter.   Inner-Iter.     Column Row Layer    Maximum-Head-Change  Column Row Layer    Maximum-Flux-Residual          L2-NORM 
          0                 1           2             6   13     1      -0.1805396541E-01       6   13    1        -0.9605777283E+00      0.2698456604E+01
          0                 2           2             8    2     1       0.1844504352E-02       6   13    1         0.9597789667E-01      0.3927670817E+00
          0                 3           2             8    2     1       0.8288481113E-03       8    2    1         0.2152896492E-01      0.1155155426E+00
          0                 4           2             8    2     1       0.3724516964E-03       8    2    1         0.9674273933E-02      0.4868701358E-01
          0                 5           2             8    2     1       0.1673650188E-03       8    2    1         0.4347237238E-02      0.2160058339E-01
          0                 6           1             8    2     1       0.7520715243E-04       8    2    1         0.1953475763E-02      0.9646617533E-02
          0                 7           1             8    2     1       0.3379506720E-04       8    2    1         0.8778138589E-03      0.4312980884E-02
          0                 8           1             8    2     1       0.1518613278E-04       8    2    1         0.3944541705E-03      0.1928983547E-02
          0                 9           1             8    2     1       0.6824027205E-05       8    2    1         0.1772516845E-03      0.8629110106E-03

    ------------------------------------------------
       NWT REQUIRED            9 OUTER ITERATIONS 
       AND A TOTAL OF         14 INNER ITERATIONS.
    ------------------------------------------------

 NO OUTPUT CONTROL FOR STRESS PERIOD   20   TIME STEP    7
 
 SOLVING FOR HEAD 
                                                   Max.-Head-Change                         Max.-Flux-Residual
  Residual-Control   Outer-Iter.   Inner-Iter.     Column Row Layer    Maximum-Head-Change  Column Row Layer    Maximum-Flux-Residual          L2-NORM 
          0                 1           2             6   13     1      -0.1764492524E-01       6   13    1        -0.9387159348E+00      0.2600545670E+01
          0                 2           2             8    2     1       0.1843438871E-02       6   13    1         0.9379337363E-01      0.3863399592E+00
          0                 3           2             8    2     1       0.8283695813E-03       8    2    1         0.2151652988E-01      0.1153215569E+00
          0                 4           2             8    2     1       0.3722367785E-03       8    2    1         0.9668689096E-02      0.4866626574E-01
          0                 5           2             8    2     1       0.1672684945E-03       8    2    1         0.4344728971E-02      0.2159031751E-01
          0                 6           1             8    2     1       0.7516380143E-04       8    2    1         0.1952349252E-02      0.9641268970E-02
          0                 7           1             8    2     1       0.3377559731E-04       8    2    1         0.8773079182E-03      0.4310296415E-02
          0                 8           1             8    2     1       0.1517738815E-04       8    2    1         0.3942269411E-03      0.1927670944E-02
          0                 9           1             8    2     1       0.6820100212E-05       8    2    1         0.1771496343E-03      0.8622808461E-03

    ------------------------------------------------
       NWT REQUIRED            9 OUTER ITERATIONS 
       AND A TOTAL OF         14 INNER ITERATIONS.
    ------------------------------------------------

 NO OUTPUT CONTROL FOR STRESS PERIOD   20   TIME STEP    8
 
 SOLVING FOR HEAD 
                                                   Max.-Head-Change                         Max.-Flux-Residual
  Residual-Control   Outer-Iter.   Inner-Iter.     Column Row Layer    Maximum-Head-Change  Column Row Layer    Maximum-Flux-Residual          L2-NORM 
          0                 1           2             6   13     1      -0.1724727929E-01       6   13    1        -0.9174519101E+00      0.2511208250E+01
          0                 2           2             8    2     1       0.1842377042E-02       6   13    1         0.9166865014E-01      0.3805062371E+00
          0                 3           2             8    2     1       0.8278926921E-03       8    2    1         0.2150413747E-01      0.1151187118E+00
          0                 4           2             8    2     1       0.3720225981E-03       8    2    1         0.9663123413E-02      0.4863425571E-01
          0                 5           2             8    2     1       0.1671723020E-03       8    2    1         0.4342229311E-02      0.2157501697E-01
          0                 6           1             8    2     1       0.7512059925E-04       8    2    1         0.1951226599E-02      0.9633763005E-02
          0                 7           1             8    2     1       0.3375619444E-04       8    2    1         0.8768037136E-03      0.4306707572E-02
          0                 8           1             8    2     1       0.1516867428E-04       8    2    1         0.3940004918E-03      0.1925985639E-02
          0                 9           1             8    2     1       0.6816186224E-05       8    2    1         0.1770479256E-03      0.8614988349E-03

    ------------------------------------------------
       NWT REQUIRED            9 OUTER ITERATIONS 
       AND A TOTAL OF         14 INNER ITERATIONS.
    ------------------------------------------------

 NO OUTPUT CONTROL FOR STRESS PERIOD   20   TIME STEP    9
 
 SOLVING FOR HEAD 
                                                   Max.-Head-Change                         Max.-Flux-Residual
  Residual-Control   Outer-Iter.   Inner-Iter.     Column Row Layer    Maximum-Head-Change  Column Row Layer    Maximum-Flux-Residual          L2-NORM 
          0                 1           2             6   13     1      -0.1686059993E-01       6   13    1        -0.8967632699E+00      0.2429817723E+01
          0                 2           2             8    2     1       0.1841318854E-02       6   13    1         0.8960115058E-01      0.3752765772E+00
          0                 3           2             8    2     1       0.8274174391E-03       8    2    1         0.2149178756E-01      0.1149253781E+00
          0                 4           2             8    2     1       0.3718091526E-03       8    2    1         0.9657576827E-02      0.4859937216E-01
          0                 5           2             8    2     1       0.1670764392E-03       8    2    1         0.4339738229E-02      0.2155863429E-01
          0                 6           1             8    2     1       0.7507754589E-04       8    2    1         0.1950107809E-02      0.9625886803E-02
          0                 7           1             8    2     1       0.3373685786E-04       8    2    1         0.8763012357E-03      0.4302990319E-02
          0                 8           1             8    2     1       0.1515998967E-04       8    2    1         0.3937748190E-03      0.1924254594E-02
          0                 9           1             8    2     1       0.6812285742E-05       8    2    1         0.1769465723E-03      0.8607003294E-03

    ------------------------------------------------
       NWT REQUIRED            9 OUTER ITERATIONS 
       AND A TOTAL OF         14 INNER ITERATIONS.
    ------------------------------------------------

 NO OUTPUT CONTROL FOR STRESS PERIOD   20   TIME STEP   10
 
 SOLVING FOR HEAD 
                                                   Max.-Head-Change                         Max.-Flux-Residual
  Residual-Control   Outer-Iter.   Inner-Iter.     Column Row Layer    Maximum-Head-Change  Column Row Layer    Maximum-Flux-Residual          L2-NORM 
          0                 1           2             6   13     1      -0.1648448601E-01       6   13    1        -0.8766290929E+00      0.2355448436E+01
          0                 2           2             8    2     1       0.1840264301E-02       6   13    1         0.8758923279E-01      0.3705958272E+00
          0                 3           2             8    2     1       0.8269438208E-03       8    2    1         0.2147948009E-01      0.1147384940E+00
          0                 4           2             8    2     1       0.3715964424E-03       8    2    1         0.9652049322E-02      0.4856180402E-01
          0                 5           2             8    2     1       0.1669809078E-03       8    2    1         0.4337255732E-02      0.2154132978E-01
          0                 6           1             8    2     1       0.7503464059E-04       8    2    1         0.1948992872E-02      0.9617712952E-02
          0                 7           1             8    2     1       0.3371758855E-04       8    2    1         0.8758005037E-03      0.4299175562E-02
          0                 8           1             8    2     1       0.1515133558E-04       8    2    1         0.3935499315E-03      0.1922491861E-02
          0                 9           1             8    2     1       0.6808399267E-05       8    2    1         0.1768455713E-03      0.8598910552E-03

    ------------------------------------------------
       NWT REQUIRED            9 OUTER ITERATIONS 
       AND A TOTAL OF         14 INNER ITERATIONS.
    ------------------------------------------------

 NO OUTPUT CONTROL FOR STRESS PERIOD   20   TIME STEP   11
 
 SOLVING FOR HEAD 
                                                   Max.-Head-Change                         Max.-Flux-Residual
  Residual-Control   Outer-Iter.   Inner-Iter.     Column Row Layer    Maximum-Head-Change  Column Row Layer    Maximum-Flux-Residual          L2-NORM 
          0                 1           2             6   13     1      -0.1611856558E-01       6   13    1        -0.8570293043E+00      0.2287416968E+01
          0                 2           2             8    2     1       0.1839213513E-02       6   13    1         0.8563074133E-01      0.3664859417E+00
          0                 3           2             8    2     1       0.8264719268E-03       8    2    1         0.2146721671E-01      0.1145656333E+00
          0                 4           2             8    2     1       0.3713845211E-03       8    2    1         0.9646542008E-02      0.4852416580E-01
          0                 5           2             8    2     1       0.1668857365E-03       8    2    1         0.4334782473E-02      0.2152396256E-01
          0                 6           1             8    2     1       0.7499190061E-04       8    2    1         0.1947882169E-02      0.9609512632E-02
          0                 7           1             8    2     1       0.3369839453E-04       8    2    1         0.8753017007E-03      0.4295349091E-02
          0                 8           1             8    2     1       0.1514271550E-04       8    2    1         0.3933259252E-03      0.1920722322E-02
          0                 9           1             8    2     1       0.6804528298E-05       8    2    1         0.1767449775E-03      0.8590787536E-03

    ------------------------------------------------
       NWT REQUIRED            9 OUTER ITERATIONS 
       AND A TOTAL OF         14 INNER ITERATIONS.
    ------------------------------------------------

 NO OUTPUT CONTROL FOR STRESS PERIOD   20   TIME STEP   12
 
 SOLVING FOR HEAD 
                                                   Max.-Head-Change                         Max.-Flux-Residual
  Residual-Control   Outer-Iter.   Inner-Iter.     Column Row Layer    Maximum-Head-Change  Column Row Layer    Maximum-Flux-Residual          L2-NORM 
          0                 1           2             6   13     1      -0.1576160031E-01       6   13    1        -0.8379568941E+00      0.2224930501E+01
          0                 2           2             8    2     1       0.1838166323E-02       6   13    1         0.8372482185E-01      0.3627216922E+00
          0                 3           2             8    2     1       0.8260016142E-03       8    2    1         0.2145499516E-01      0.1143999463E+00
          0                 4           2             8    2     1       0.3711732956E-03       8    2    1         0.9641053090E-02      0.4848538941E-01
          0                 5           2             8    2     1       0.1667908712E-03       8    2    1         0.4332317298E-02      0.2150612336E-01
          0                 6           1             8    2     1       0.7494929495E-04       8    2    1         0.1946775012E-02      0.9601165912E-02
          0                 7           1             8    2     1       0.3367925929E-04       8    2    1         0.8748044540E-03      0.4291481249E-02
          0                 8           1             8    2     1       0.1513412169E-04       8    2    1         0.3931026040E-03      0.1918944972E-02
          0                 9           1             8    2     1       0.6800668584E-05       8    2    1         0.1766446789E-03      0.8582669662E-03

    ------------------------------------------------
       NWT REQUIRED            9 OUTER ITERATIONS 
       AND A TOTAL OF         14 INNER ITERATIONS.
    ------------------------------------------------

 NO OUTPUT CONTROL FOR STRESS PERIOD   20   TIME STEP   13
 
 SOLVING FOR HEAD 
                                                   Max.-Head-Change                         Max.-Flux-Residual
  Residual-Control   Outer-Iter.   Inner-Iter.     Column Row Layer    Maximum-Head-Change  Column Row Layer    Maximum-Flux-Residual          L2-NORM 
          0                 1           2             6   13     1      -0.1541356474E-01       6   13    1        -0.8193768879E+00      0.2167428789E+01
          0                 2           2             8    2     1       0.1837070930E-02       6   13    1         0.8186833395E-01      0.3592500494E+00
          0                 3           2             8    2     1       0.8255097006E-03       8    2    1         0.2144221127E-01      0.1142411197E+00
          0                 4           2             8    2     1       0.3709523890E-03       8    2    1         0.9635312159E-02      0.4844685036E-01
          0                 5           2             8    2     1       0.1666916671E-03       8    2    1         0.4329739184E-02      0.2148776767E-01
          0                 6           1             8    2     1       0.7490474442E-04       8    2    1         0.1945617243E-02      0.9592354776E-02
          0                 7           1             8    2     1       0.3365925315E-04       8    2    1         0.8742845306E-03      0.4287324920E-02
          0                 8           1             8    2     1       0.1512513745E-04       8    2    1         0.3928691156E-03      0.1917008129E-02
          0                 9           1             8    2     1       0.6796633543E-05       8    2    1         0.1765398198E-03      0.8573729831E-03

    ------------------------------------------------
       NWT REQUIRED            9 OUTER ITERATIONS 
       AND A TOTAL OF         14 INNER ITERATIONS.
    ------------------------------------------------

 NO OUTPUT CONTROL FOR STRESS PERIOD   20   TIME STEP   14
 
 SOLVING FOR HEAD 
                                                   Max.-Head-Change                         Max.-Flux-Residual
  Residual-Control   Outer-Iter.   Inner-Iter.     Column Row Layer    Maximum-Head-Change  Column Row Layer    Maximum-Flux-Residual          L2-NORM 
          0                 1           2             6   13     1      -0.1507484004E-01       6   13    1        -0.8013039359E+00      0.2114678952E+01
          0                 2           2             8    2     1       0.1836031269E-02       6   13    1         0.8006196315E-01      0.3561033029E+00
          0                 3           2             8    2     1       0.8250427713E-03       8    2    1         0.2143007760E-01      0.1141067126E+00
          0                 4           2             8    2     1       0.3707426829E-03       8    2    1         0.9629862718E-02      0.4841176361E-01
          0                 5           2             8    2     1       0.1665974848E-03       8    2    1         0.4327291749E-02      0.2147128080E-01
          0                 6           1             8    2     1       0.7486244564E-04       8    2    1         0.1944518056E-02      0.9584553149E-02
          0                 7           1             8    2     1       0.3364025572E-04       8    2    1         0.8737908626E-03      0.4283680044E-02
          0                 8           1             8    2     1       0.1511660516E-04       8    2    1         0.3926474030E-03      0.1915321477E-02
          0                 9           1             8    2     1       0.6792801842E-05       8    2    1         0.1764402481E-03      0.8565975878E-03

    ------------------------------------------------
       NWT REQUIRED            9 OUTER ITERATIONS 
       AND A TOTAL OF         14 INNER ITERATIONS.
    ------------------------------------------------

 NO OUTPUT CONTROL FOR STRESS PERIOD   20   TIME STEP   15
 
 SOLVING FOR HEAD 
                                                   Max.-Head-Change                         Max.-Flux-Residual
  Residual-Control   Outer-Iter.   Inner-Iter.     Column Row Layer    Maximum-Head-Change  Column Row Layer    Maximum-Flux-Residual          L2-NORM 
          0                 1           2             6   13     1      -0.1474490504E-01       6   13    1        -0.7837034262E+00      0.2066242330E+01
          0                 2           2             8    2     1       0.1834995188E-02       6   13    1         0.7830368255E-01      0.3531470615E+00
          0                 3           2             8    2     1       0.8245774484E-03       8    2    1         0.2141798571E-01      0.1139701390E+00
          0                 4           2             8    2     1       0.3705336981E-03       8    2    1         0.9624432035E-02      0.4837676525E-01
          0                 5           2             8    2     1       0.1665036259E-03       8    2    1         0.4324852730E-02      0.2145480623E-01
          0                 6           1             8    2     1       0.7482029167E-04       8    2    1         0.1943422645E-02      0.9576741536E-02
          0                 7           1             8    2     1       0.3362132356E-04       8    2    1         0.8732988933E-03      0.4280027706E-02
          0                 8           1             8    2     1       0.1510810264E-04       8    2    1         0.3924264482E-03      0.1913632105E-02
          0                 9           1             8    2     1       0.6788982896E-05       8    2    1         0.1763410083E-03      0.8558222033E-03

    ------------------------------------------------
       NWT REQUIRED            9 OUTER ITERATIONS 
       AND A TOTAL OF         14 INNER ITERATIONS.
    ------------------------------------------------

 NO OUTPUT CONTROL FOR STRESS PERIOD   20   TIME STEP   16
 
 SOLVING FOR HEAD 
                                                   Max.-Head-Change                         Max.-Flux-Residual
  Residual-Control   Outer-Iter.   Inner-Iter.     Column Row Layer    Maximum-Head-Change  Column Row Layer    Maximum-Flux-Residual          L2-NORM 
          0                 1           2             6   13     1      -0.1442333434E-01       6   13    1        -0.7665509264E+00      0.2021618795E+01
          0                 2           2             8    2     1       0.1833962673E-02       6   13    1         0.7660003301E-01      0.3500113514E+00
          0                 3           2             8    2     1       0.8241137271E-03       8    2    1         0.2140593543E-01      0.1138094930E+00
          0                 4           2             8    2     1       0.3703254321E-03       8    2    1         0.9619020033E-02      0.4833159962E-01
          0                 5           2             8    2     1       0.1664100896E-03       8    2    1         0.4322422097E-02      0.2143350999E-01
          0                 6           1             8    2     1       0.7477828252E-04       8    2    1         0.1942331001E-02      0.9566635876E-02
          0                 7           1             8    2     1       0.3360245644E-04       8    2    1         0.8728086151E-03      0.4275284941E-02
          0                 8           1             8    2     1       0.1509962887E-04       8    2    1         0.3922062559E-03      0.1911424607E-02
          0                 9           1             8    2     1       0.6785177457E-05       8    2    1         0.1762421191E-03      0.8548011916E-03

    ------------------------------------------------
       NWT REQUIRED            9 OUTER ITERATIONS 
       AND A TOTAL OF         14 INNER ITERATIONS.
    ------------------------------------------------

 NO OUTPUT CONTROL FOR STRESS PERIOD   20   TIME STEP   17
 
 SOLVING FOR HEAD 
                                                   Max.-Head-Change                         Max.-Flux-Residual
  Residual-Control   Outer-Iter.   Inner-Iter.     Column Row Layer    Maximum-Head-Change  Column Row Layer    Maximum-Flux-Residual          L2-NORM 
          0                 1           2             6   13     1      -0.1411099563E-01       6   13    1        -0.7498534941E+00      0.1980826791E+01
          0                 2           2             8    2     1       0.1832881891E-02       6   13    1         0.7493242807E-01      0.3478856996E+00
          0                 3           2             8    2     1       0.8236283753E-03       8    2    1         0.2139332206E-01      0.1136692056E+00
          0                 4           2             8    2     1       0.3701074724E-03       8    2    1         0.9613355684E-02      0.4828602785E-01
          0                 5           2             8    2     1       0.1663122091E-03       8    2    1         0.4319878380E-02      0.2141221249E-01
          0                 6           1             8    2     1       0.7473432701E-04       8    2    1         0.1941188681E-02      0.9556680406E-02
          0                 7           1             8    2     1       0.3358271692E-04       8    2    1         0.8722956252E-03      0.4270686181E-02
          0                 8           1             8    2     1       0.1509076419E-04       8    2    1         0.3919758825E-03      0.1909317692E-02
          0                 9           1             8    2     1       0.6781196439E-05       8    2    1         0.1761386633E-03      0.8538421421E-03

    ------------------------------------------------
       NWT REQUIRED            9 OUTER ITERATIONS 
       AND A TOTAL OF         14 INNER ITERATIONS.
    ------------------------------------------------

 NO OUTPUT CONTROL FOR STRESS PERIOD   20   TIME STEP   18
 
 SOLVING FOR HEAD 
                                                   Max.-Head-Change                         Max.-Flux-Residual
  Residual-Control   Outer-Iter.   Inner-Iter.     Column Row Layer    Maximum-Head-Change  Column Row Layer    Maximum-Flux-Residual          L2-NORM 
          0                 1           2             6   13     1      -0.1380657436E-01       6   13    1        -0.7336001900E+00      0.1943551574E+01
          0                 2           2             8    2     1       0.1831856809E-02       6   13    1         0.7330787390E-01      0.3456923150E+00
          0                 3           2             8    2     1       0.8231679927E-03       8    2    1         0.2138135854E-01      0.1135672001E+00
          0                 4           2             8    2     1       0.3699007061E-03       8    2    1         0.9607982648E-02      0.4825756203E-01
          0                 5           2             8    2     1       0.1662193464E-03       8    2    1         0.4317465249E-02      0.2139805086E-01
          0                 6           1             8    2     1       0.7469262049E-04       8    2    1         0.1940104898E-02      0.9549742071E-02
          0                 7           1             8    2     1       0.3356398586E-04       8    2    1         0.8718088778E-03      0.4267373296E-02
          0                 8           1             8    2     1       0.1508235145E-04       8    2    1         0.3917572730E-03      0.1907764261E-02
          0                 9           1             8    2     1       0.6777418512E-05       8    2    1         0.1760404845E-03      0.8531216863E-03

    ------------------------------------------------
       NWT REQUIRED            9 OUTER ITERATIONS 
       AND A TOTAL OF         14 INNER ITERATIONS.
    ------------------------------------------------

 NO OUTPUT CONTROL FOR STRESS PERIOD   20   TIME STEP   19
 
 SOLVING FOR HEAD 
                                                   Max.-Head-Change                         Max.-Flux-Residual
  Residual-Control   Outer-Iter.   Inner-Iter.     Column Row Layer    Maximum-Head-Change  Column Row Layer    Maximum-Flux-Residual          L2-NORM 
          0                 1           2             6   13     1      -0.1351027693E-01       6   13    1        -0.7177829681E+00      0.1908970195E+01
          0                 2           2             8    2     1       0.1830783426E-02       6   13    1         0.7172704936E-01      0.3436305925E+00
          0                 3           2             8    2     1       0.8226859622E-03       8    2    1         0.2136883150E-01      0.1134411176E+00
          0                 4           2             8    2     1       0.3696842380E-03       8    2    1         0.9602357066E-02      0.4822018748E-01
          0                 5           2             8    2     1       0.1661221355E-03       8    2    1         0.4314938932E-02      0.2138091235E-01
          0                 6           1             8    2     1       0.7464896511E-04       8    2    1         0.1938970389E-02      0.9541757800E-02
          0                 7           1             8    2     1       0.3354438115E-04       8    2    1         0.8712993953E-03      0.4263680802E-02
          0                 8           1             8    2     1       0.1507354780E-04       8    2    1         0.3915284784E-03      0.1906067968E-02
          0                 9           1             8    2     1       0.6773464756E-05       8    2    1         0.1759377333E-03      0.8523467295E-03

    ------------------------------------------------
       NWT REQUIRED            9 OUTER ITERATIONS 
       AND A TOTAL OF         14 INNER ITERATIONS.
    ------------------------------------------------

 NO OUTPUT CONTROL FOR STRESS PERIOD   20   TIME STEP   20
 
 SOLVING FOR HEAD 
                                                   Max.-Head-Change                         Max.-Flux-Residual
  Residual-Control   Outer-Iter.   Inner-Iter.     Column Row Layer    Maximum-Head-Change  Column Row Layer    Maximum-Flux-Residual          L2-NORM 
          0                 1           2             6   13     1      -0.1322172031E-01       6   13    1        -0.7023810752E+00      0.1876886013E+01
          0                 2           2             8    2     1       0.1829765489E-02       6   13    1         0.7018760743E-01      0.3418142551E+00
          0                 3           2             8    2     1       0.8222287302E-03       8    2    1         0.2135695110E-01      0.1133240599E+00
          0                 4           2             8    2     1       0.3694788603E-03       8    2    1         0.9597020676E-02      0.4818349184E-01
          0                 5           2             8    2     1       0.1660298848E-03       8    2    1         0.4312541959E-02      0.2136397051E-01
          0                 6           1             8    2     1       0.7460752846E-04       8    2    1         0.1937893726E-02      0.9533867576E-02
          0                 7           1             8    2     1       0.3352576889E-04       8    2    1         0.8708157843E-03      0.4260034819E-02
          0                 8           1             8    2     1       0.1506518733E-04       8    2    1         0.3913112481E-03      0.1904394342E-02
          0                 9           1             8    2     1       0.6769709339E-05       8    2    1         0.1758401570E-03      0.8515820658E-03

    ------------------------------------------------
       NWT REQUIRED            9 OUTER ITERATIONS 
       AND A TOTAL OF         14 INNER ITERATIONS.
    ------------------------------------------------

 NO OUTPUT CONTROL FOR STRESS PERIOD   20   TIME STEP   21
 
 SOLVING FOR HEAD 
                                                   Max.-Head-Change                         Max.-Flux-Residual
  Residual-Control   Outer-Iter.   Inner-Iter.     Column Row Layer    Maximum-Head-Change  Column Row Layer    Maximum-Flux-Residual          L2-NORM 
          0                 1           2             6   13     1      -0.1294075837E-01       6   13    1        -0.6873864244E+00      0.1847382514E+01
          0                 2           2             8    2     1       0.1828750945E-02       6   13    1         0.6868888612E-01      0.3402657378E+00
          0                 3           2             8    2     1       0.8217730451E-03       8    2    1         0.2134511038E-01      0.1132076211E+00
          0                 4           2             8    2     1       0.3692741882E-03       8    2    1         0.9591702392E-02      0.4814352847E-01
          0                 5           2             8    2     1       0.1659379557E-03       8    2    1         0.4310153236E-02      0.2134570284E-01
          0                 6           1             8    2     1       0.7456623813E-04       8    2    1         0.1936820824E-02      0.9525487375E-02
          0                 7           1             8    2     1       0.3350722316E-04       8    2    1         0.8703338882E-03      0.4256209226E-02
          0                 8           1             8    2     1       0.1505685763E-04       8    2    1         0.3910948030E-03      0.1902654523E-02
          0                 9           1             8    2     1       0.6765967928E-05       8    2    1         0.1757429396E-03      0.8507931613E-03

    ------------------------------------------------
       NWT REQUIRED            9 OUTER ITERATIONS 
       AND A TOTAL OF         14 INNER ITERATIONS.
    ------------------------------------------------

 NO OUTPUT CONTROL FOR STRESS PERIOD   20   TIME STEP   22
 
 SOLVING FOR HEAD 
                                                   Max.-Head-Change                         Max.-Flux-Residual
  Residual-Control   Outer-Iter.   Inner-Iter.     Column Row Layer    Maximum-Head-Change  Column Row Layer    Maximum-Flux-Residual          L2-NORM 
          0                 1           2             6   13     1      -0.1266712826E-01       6   13    1        -0.6727855498E+00      0.1819903948E+01
          0                 2           2             8    2     1       0.1827688064E-02       6   13    1         0.6722941407E-01      0.3388311137E+00
          0                 3           2             8    2     1       0.8212957314E-03       8    2    1         0.2133270594E-01      0.1130992620E+00
          0                 4           2             8    2     1       0.3690598380E-03       8    2    1         0.9586131861E-02      0.4810569601E-01
          0                 5           2             8    2     1       0.1658416960E-03       8    2    1         0.4307651642E-02      0.2132824196E-01
          0                 6           1             8    2     1       0.7452301019E-04       8    2    1         0.1935697415E-02      0.9517423123E-02
          0                 7           1             8    2     1       0.3348781029E-04       8    2    1         0.8698293841E-03      0.4252510081E-02
          0                 8           1             8    2     1       0.1504813926E-04       8    2    1         0.3908682379E-03      0.1900966643E-02
          0                 9           1             8    2     1       0.6762052940E-05       8    2    1         0.1756411972E-03      0.8500258044E-03

    ------------------------------------------------
       NWT REQUIRED            9 OUTER ITERATIONS 
       AND A TOTAL OF         14 INNER ITERATIONS.
    ------------------------------------------------

 NO OUTPUT CONTROL FOR STRESS PERIOD   20   TIME STEP   23
 
 SOLVING FOR HEAD 
                                                   Max.-Head-Change                         Max.-Flux-Residual
  Residual-Control   Outer-Iter.   Inner-Iter.     Column Row Layer    Maximum-Head-Change  Column Row Layer    Maximum-Flux-Residual          L2-NORM 
          0                 1           2             6   13     1      -0.1240072209E-01       6   13    1        -0.6585656758E+00      0.1794073095E+01
          0                 2           2             8    2     1       0.1826680840E-02       6   13    1         0.6580827018E-01      0.3373763015E+00
          0                 3           2             8    2     1       0.8208433653E-03       8    2    1         0.2132095080E-01      0.1130047597E+00
          0                 4           2             8    2     1       0.3688566705E-03       8    2    1         0.9580852380E-02      0.4807288218E-01
          0                 5           2             8    2     1       0.1657504487E-03       8    2    1         0.4305280510E-02      0.2131221910E-01
          0                 6           1             8    2     1       0.7448202874E-04       8    2    1         0.1934632483E-02      0.9509710759E-02
          0                 7           1             8    2     1       0.3346940437E-04       8    2    1         0.8693510972E-03      0.4248869373E-02
          0                 8           1             8    2     1       0.1503987284E-04       8    2    1         0.3906534285E-03      0.1899271525E-02
          0                 9           1             8    2     1       0.6758340041E-05       8    2    1         0.1755447193E-03      0.8492446452E-03

    ------------------------------------------------
       NWT REQUIRED            9 OUTER ITERATIONS 
       AND A TOTAL OF         14 INNER ITERATIONS.
    ------------------------------------------------

 NO OUTPUT CONTROL FOR STRESS PERIOD   20   TIME STEP   24
 
 SOLVING FOR HEAD 
                                                   Max.-Head-Change                         Max.-Flux-Residual
  Residual-Control   Outer-Iter.   Inner-Iter.     Column Row Layer    Maximum-Head-Change  Column Row Layer    Maximum-Flux-Residual          L2-NORM 
          0                 1           2             6   13     1      -0.1214131840E-01       6   13    1        -0.6447257631E+00      0.1769975023E+01
          0                 2           2             8    2     1       0.1825625224E-02       6   13    1         0.6442500337E-01      0.3360151906E+00
          0                 3           2             8    2     1       0.8203693131E-03       8    2    1         0.2130863114E-01      0.1129077770E+00
          0                 4           2             8    2     1       0.3686437843E-03       8    2    1         0.9575319901E-02      0.4803898078E-01
          0                 5           2             8    2     1       0.1656548460E-03       8    2    1         0.4302795994E-02      0.2129619343E-01
          0                 6           1             8    2     1       0.7443909518E-04       8    2    1         0.1933516736E-02      0.9502171445E-02
          0                 7           1             8    2     1       0.3345012381E-04       8    2    1         0.8688500395E-03      0.4245364232E-02
          0                 8           1             8    2     1       0.1503121425E-04       8    2    1         0.3904284143E-03      0.1897655142E-02
          0                 9           1             8    2     1       0.6754451565E-05       8    2    1         0.1754436713E-03      0.8485045919E-03

    ------------------------------------------------
       NWT REQUIRED            9 OUTER ITERATIONS 
       AND A TOTAL OF         14 INNER ITERATIONS.
    ------------------------------------------------

 NO OUTPUT CONTROL FOR STRESS PERIOD   20   TIME STEP   25
 
 SOLVING FOR HEAD 
                                                   Max.-Head-Change                         Max.-Flux-Residual
  Residual-Control   Outer-Iter.   Inner-Iter.     Column Row Layer    Maximum-Head-Change  Column Row Layer    Maximum-Flux-Residual          L2-NORM 
          0                 1           2             6   13     1      -0.1188861080E-01       6   13    1        -0.6312467986E+00      0.1747375809E+01
          0                 2           2             8    2     1       0.1824573153E-02       6   13    1         0.6307785209E-01      0.3347377600E+00
          0                 3           2             8    2     1       0.8198967938E-03       8    2    1         0.2129635256E-01      0.1128167969E+00
          0                 4           2             8    2     1       0.3684315598E-03       8    2    1         0.9569805185E-02      0.4800745695E-01
          0                 5           2             8    2     1       0.1655595290E-03       8    2    1         0.4300319154E-02      0.2128118878E-01
          0                 6           1             8    2     1       0.7439628492E-04       8    2    1         0.1932404303E-02      0.9495045589E-02
          0                 7           1             8    2     1       0.3343089652E-04       8    2    1         0.8683504101E-03      0.4242021668E-02
          0                 8           1             8    2     1       0.1502257842E-04       8    2    1         0.3902040083E-03      0.1896101216E-02
          0                 9           1             8    2     1       0.6750572843E-05       8    2    1         0.1753428782E-03      0.8477871997E-03

    ------------------------------------------------
       NWT REQUIRED            9 OUTER ITERATIONS 
       AND A TOTAL OF         14 INNER ITERATIONS.
    ------------------------------------------------

 NO OUTPUT CONTROL FOR STRESS PERIOD   20   TIME STEP   26
 
 SOLVING FOR HEAD 
                                                   Max.-Head-Change                         Max.-Flux-Residual
  Residual-Control   Outer-Iter.   Inner-Iter.     Column Row Layer    Maximum-Head-Change  Column Row Layer    Maximum-Flux-Residual          L2-NORM 
          0                 1           2             6   13     1      -0.1164235266E-01       6   13    1        -0.6181130410E+00      0.1726179475E+01
          0                 2           2             8    2     1       0.1823576591E-02       6   13    1         0.6176529890E-01      0.3335234532E+00
          0                 3           2             8    2     1       0.8194491791E-03       8    2    1         0.2128472169E-01      0.1127220193E+00
          0                 4           2             8    2     1       0.3682305093E-03       8    2    1         0.9564581075E-02      0.4797375553E-01
          0                 5           2             8    2     1       0.1654692244E-03       8    2    1         0.4297972681E-02      0.2126534287E-01
          0                 6           1             8    2     1       0.7435572341E-04       8    2    1         0.1931350355E-02      0.9487596396E-02
          0                 7           1             8    2     1       0.3341267718E-04       8    2    1         0.8678770097E-03      0.4238550062E-02
          0                 8           1             8    2     1       0.1501439528E-04       8    2    1         0.3899913779E-03      0.1894496008E-02
          0                 9           1             8    2     1       0.6746896961E-05       8    2    1         0.1752473698E-03      0.8470489048E-03

    ------------------------------------------------
       NWT REQUIRED            9 OUTER ITERATIONS 
       AND A TOTAL OF         14 INNER ITERATIONS.
    ------------------------------------------------

 NO OUTPUT CONTROL FOR STRESS PERIOD   20   TIME STEP   27
 
 SOLVING FOR HEAD 
                                                   Max.-Head-Change                         Max.-Flux-Residual
  Residual-Control   Outer-Iter.   Inner-Iter.     Column Row Layer    Maximum-Head-Change  Column Row Layer    Maximum-Flux-Residual          L2-NORM 
          0                 1           2             6   13     1      -0.1140234571E-01       6   13    1        -0.6053137465E+00      0.1706544829E+01
          0                 2           2             8    2     1       0.1822531585E-02       6   13    1         0.6048616022E-01      0.3324216227E+00
          0                 3           2             8    2     1       0.8189798832E-03       8    2    1         0.2127252581E-01      0.1126306852E+00
          0                 4           2             8    2     1       0.3680197550E-03       8    2    1         0.9559104098E-02      0.4793891542E-01
          0                 5           2             8    2     1       0.1653745769E-03       8    2    1         0.4295513046E-02      0.2124876668E-01
          0                 6           1             8    2     1       0.7431321804E-04       8    2    1         0.1930245758E-02      0.9479823843E-02
          0                 7           1             8    2     1       0.3339358821E-04       8    2    1         0.8673809433E-03      0.4234956593E-02
          0                 8           1             8    2     1       0.1500582248E-04       8    2    1         0.3897685951E-03      0.1892849812E-02
          0                 9           1             8    2     1       0.6743046752E-05       8    2    1         0.1751473178E-03      0.8462992606E-03

    ------------------------------------------------
       NWT REQUIRED            9 OUTER ITERATIONS 
       AND A TOTAL OF         14 INNER ITERATIONS.
    ------------------------------------------------

 NO OUTPUT CONTROL FOR STRESS PERIOD   20   TIME STEP   28
 
 SOLVING FOR HEAD 
                                                   Max.-Head-Change                         Max.-Flux-Residual
  Residual-Control   Outer-Iter.   Inner-Iter.     Column Row Layer    Maximum-Head-Change  Column Row Layer    Maximum-Flux-Residual          L2-NORM 
          0                 1           2             6   13     1      -0.1158870650E-01       6   13    1        -0.6153802400E+00      0.1738250342E+01
          0                 2           2             8    2     1       0.1821490290E-02       6   13    1         0.6150928786E-01      0.3312047248E+00
          0                 3           2             8    2     1       0.8185122516E-03       8    2    1         0.2126037324E-01      0.1123141257E+00
          0                 4           2             8    2     1       0.3678097460E-03       8    2    1         0.9553646522E-02      0.4787823477E-01
          0                 5           2             8    2     1       0.1652802635E-03       8    2    1         0.4293062098E-02      0.2122723092E-01
          0                 6           1             8    2     1       0.7427086199E-04       8    2    1         0.1929145050E-02      0.9470192989E-02
          0                 7           1             8    2     1       0.3337456626E-04       8    2    1         0.8668866195E-03      0.4230521066E-02
          0                 8           1             8    2     1       0.1499727943E-04       8    2    1         0.3895465906E-03      0.1890815152E-02
          0                 9           1             8    2     1       0.6739210298E-05       8    2    1         0.1750476160E-03      0.8453714193E-03

    ------------------------------------------------
       NWT REQUIRED            9 OUTER ITERATIONS 
       AND A TOTAL OF         14 INNER ITERATIONS.
    ------------------------------------------------

 NO OUTPUT CONTROL FOR STRESS PERIOD   20   TIME STEP   29
 
 SOLVING FOR HEAD 
                                                   Max.-Head-Change                         Max.-Flux-Residual
  Residual-Control   Outer-Iter.   Inner-Iter.     Column Row Layer    Maximum-Head-Change  Column Row Layer    Maximum-Flux-Residual          L2-NORM 
          0                 1           2             6   13     1      -0.1212753111E-01       6   13    1        -0.6437162245E+00      0.1863249666E+01
          0                 2           2             8    2     1       0.1820504185E-02       6   13    1         0.6431127408E-01      0.3336577755E+00
          0                 3           2             8    2     1       0.8180692635E-03       8    2    1         0.2124886408E-01      0.1118157675E+00
          0                 4           2             8    2     1       0.3676107419E-03       8    2    1         0.9548476268E-02      0.4777229914E-01
          0                 5           2             8    2     1       0.1651908638E-03       8    2    1         0.4290739455E-02      0.2119258623E-01
          0                 6           1             8    2     1       0.7423070066E-04       8    2    1         0.1928101644E-02      0.9455463794E-02
          0                 7           1             8    2     1       0.3335652400E-04       8    2    1         0.8664178819E-03      0.4223930140E-02
          0                 8           1             8    2     1       0.1498917409E-04       8    2    1         0.3893360194E-03      0.1887851784E-02
          0                 9           1             8    2     1       0.6735569182E-05       8    2    1         0.1749530203E-03      0.8440429020E-03

    ------------------------------------------------
       NWT REQUIRED            9 OUTER ITERATIONS 
       AND A TOTAL OF         14 INNER ITERATIONS.
    ------------------------------------------------

 NO OUTPUT CONTROL FOR STRESS PERIOD   20   TIME STEP   30



 STREAM LISTING     PERIOD     20   STEP       30

 LAYER ROW COL. STREAM  RCH.  FLOW INTO     FLOW TO   FLOW OUT OF   OVRLND.     DIRECT     STREAM       STREAM     STREAM     STREAM   STREAMBED  STREAMBED
                SEG.NO.  NO.  STRM. RCH.    AQUIFER    STRM. RCH.    RUNOFF     PRECIP       ET          HEAD       DEPTH      WIDTH   CONDCTNC.   GRADIENT

   1    1    1     1     1    1.4000E+01  1.7986E-01   1.3820E+01  0.000E+00  0.000E+00  0.000E+00  1.09404E+03  9.902E-01  1.002E+01  4.508E-02  1.330E+00
   1    2    2     1     2    1.3820E+01  2.7716E-01   1.3543E+01  0.000E+00  0.000E+00  0.000E+00  1.08904E+03  9.855E-01  9.935E+00  6.954E-02  1.328E+00
   1    3    3     1     3    1.3543E+01  2.3502E-01   1.3308E+01  0.000E+00  0.000E+00  0.000E+00  1.08340E+03  9.801E-01  9.842E+00  5.905E-02  1.327E+00
   1    3    4     1     4    1.3308E+01  2.1532E-01   1.3093E+01  0.000E+00  0.000E+00  0.000E+00  1.07838E+03  9.753E-01  9.759E+00  5.416E-02  1.325E+00
   1    4    5     2     1    1.1093E+01  2.9139E-01   1.0801E+01  0.000E+00  0.000E+00  0.000E+00  1.07267E+03  7.357E-01  1.200E+01  7.800E-02  1.245E+00
   1    5    6     2     2    1.0801E+01  2.2352E-01   1.0578E+01  0.000E+00  0.000E+00  0.000E+00  1.06723E+03  7.253E-01  1.200E+01  6.000E-02  1.242E+00
   1    6    6     2     3    1.0578E+01  2.2297E-01   1.0355E+01  0.000E+00  0.000E+00  0.000E+00  1.06251E+03  7.162E-01  1.200E+01  6.000E-02  1.239E+00
   1    7    6     2     4    1.0355E+01  2.2242E-01   1.0132E+01  0.000E+00  0.000E+00  0.000E+00  1.05778E+03  7.070E-01  1.200E+01  6.000E-02  1.236E+00
   1    8    6     2     5    1.0132E+01  2.2187E-01   9.9105E+00  0.000E+00  0.000E+00  0.000E+00  1.05306E+03  6.978E-01  1.200E+01  6.000E-02  1.233E+00
   1    3    5     3     1    2.0000E+00  2.8252E-01   1.7175E+00  0.000E+00  0.000E+00  0.000E+00  1.07555E+03  1.909E+00  9.636E+00  7.227E-02  1.955E+00
   1    3    6     3     2    1.7175E+00  2.4905E-01   1.4684E+00  0.000E+00  0.000E+00  0.000E+00  1.07264E+03  1.727E+00  8.909E+00  6.682E-02  1.864E+00
   1    3    7     3     3    1.4684E+00  1.9718E-01   1.2712E+00  0.000E+00  0.000E+00  0.000E+00  1.06987E+03  1.555E+00  8.218E+00  5.547E-02  1.777E+00
   1    4    8     3     4    1.2712E+00  2.2567E-01   1.0456E+00  0.000E+00  0.000E+00  0.000E+00  1.06682E+03  1.364E+00  7.455E+00  6.709E-02  1.682E+00
   1    5    8     3     5    1.0456E+00  1.5790E-01   8.8768E-01  0.000E+00  0.000E+00  0.000E+00  1.06362E+03  1.164E+00  6.655E+00  4.991E-02  1.582E+00
   1    6    8     3     6    8.8768E-01  5.5980E-02   8.3170E-01  0.000E+00  0.000E+00  0.000E+00  1.06158E+03  1.036E+00  6.145E+00  1.844E-02  1.518E+00
   1    5   10     4     1    1.0000E+01  9.0919E-02   9.9091E+00  0.000E+00  0.000E+00  0.000E+00  1.07836E+03  6.368E-01  1.000E+01  2.500E-02  1.212E+00
   1    5    9     4     2    9.9091E+00  1.8158E-01   9.7275E+00  0.000E+00  0.000E+00  0.000E+00  1.07154E+03  6.315E-01  1.000E+01  5.000E-02  1.211E+00
   1    6    8     4     3    9.7275E+00  1.2689E-01   9.6006E+00  0.000E+00  0.000E+00  0.000E+00  1.06381E+03  6.256E-01  1.000E+01  3.500E-02  1.209E+00
   1    6    8     5     1    1.0432E+01  2.2686E-01   1.0205E+01  0.000E+00  0.000E+00  0.000E+00  1.05868E+03  6.790E-01  1.542E+01  6.166E-02  1.226E+00
   1    7    7     5     2    1.0205E+01  2.7894E-01   9.9265E+00  0.000E+00  0.000E+00  0.000E+00  1.05417E+03  6.732E-01  1.519E+01  7.594E-02  1.224E+00
   1    8    7     5     3    9.9265E+00  1.9221E-01   9.7343E+00  0.000E+00  0.000E+00  0.000E+00  1.04992E+03  6.676E-01  1.497E+01  5.241E-02  1.223E+00
   1    8    6     5     4    9.7343E+00  1.3577E-01   9.5985E+00  0.000E+00  0.000E+00  0.000E+00  1.04691E+03  6.637E-01  1.482E+01  3.706E-02  1.221E+00
   1    9    6     6     1    1.4509E+01  2.3260E-01   1.4276E+01  0.000E+00  0.000E+00  0.000E+00  1.04360E+03  8.767E-01  1.200E+01  6.000E-02  1.292E+00
   1   10    7     6     2    1.4276E+01  2.3209E-01   1.4044E+01  0.000E+00  0.000E+00  0.000E+00  1.03905E+03  8.682E-01  1.200E+01  6.000E-02  1.289E+00
   1   11    7     6     3    1.4044E+01  2.3158E-01   1.3813E+01  0.000E+00  0.000E+00  0.000E+00  1.03450E+03  8.596E-01  1.200E+01  6.000E-02  1.287E+00
   1   12    7     6     4    1.3813E+01  2.3106E-01   1.3582E+01  0.000E+00  0.000E+00  0.000E+00  1.02994E+03  8.510E-01  1.200E+01  6.000E-02  1.284E+00
   1   13    7     6     5    1.3582E+01 -7.1226E-02   1.3653E+01  0.000E+00  0.000E+00  0.000E+00  1.02676E+03  8.481E-01  1.200E+01  2.400E-01 -9.892E-02
   1   14    9     7     1    1.5000E+02  1.1653E+00   1.4883E+02  0.000E+00  0.000E+00  0.000E+00  1.03987E+03  2.288E+00  5.530E+01  5.593E-01  6.945E-01
   1   13    8     7     2    1.4883E+02  1.6146E+00   1.4722E+02  0.000E+00  0.000E+00  0.000E+00  1.03478E+03  2.281E+00  5.526E+01  6.149E-01  8.753E-01
   1   13    7     7     3    1.4722E+02  1.4735E+00   1.4575E+02  0.000E+00  0.000E+00  0.000E+00  1.02969E+03  2.273E+00  5.523E+01  5.586E-01  8.793E-01
   1   13    6     8     1    1.5940E+02  8.3609E-01   1.5856E+02  0.000E+00  0.000E+00  0.000E+00  1.02475E+03  2.879E+00  4.174E+01  4.254E-01  6.552E-01
   1   13    5     8     2    1.5856E+02  1.0499E-01   1.5846E+02  0.000E+00  0.000E+00  0.000E+00  1.01850E+03  2.876E+00  4.170E+01  4.249E-01  8.236E-02
   1   13    4     8     3    1.5846E+02 -2.5134E+00   1.6097E+02  0.000E+00  0.000E+00  0.000E+00  1.01226E+03  2.884E+00  4.182E+01  4.261E+00 -1.966E-01
   1   13    3     8     4    1.6097E+02 -3.3773E+00   1.6435E+02  0.000E+00  0.000E+00  0.000E+00  1.00603E+03  2.904E+00  4.210E+01  4.291E+00 -2.624E-01
   1   13    2     8     5    1.6435E+02 -1.8064E+00   1.6616E+02  0.000E+00  0.000E+00  0.000E+00  9.99796E+02  2.921E+00  4.235E+01  4.316E+00 -1.395E-01
   1   13    1     8     6    1.6616E+02 -1.1528E+00   1.6731E+02  0.000E+00  0.000E+00  0.000E+00  9.94806E+02  2.931E+00  4.250E+01  2.598E+00 -1.479E-01
   1    6    8     9     1    5.0000E+00  0.0000E+00   5.0000E+00  0.000E+00  0.000E+00  0.000E+00  1.07886E+03  3.555E-01  4.000E+00  0.000E+00  1.119E+00





UNSATURATED ZONE PACKAGE VOLUMETRIC BUDGET FOR  TIME STEP    30 STRESS PERIOD   20
  ------------------------------------------------------------------------------



     CUMULATIVE VOLUMES      L**3       RATES FOR THIS TIME STEP      L**3/T
     ------------------                 ------------------------

           IN:                                      IN:
           ---                                      ---
        INFILTRATION =    54229840.4479          INFILTRATION =           5.0001

          OUT:                                     OUT:
          ----                                     ----
              UZF ET =   581422315.5848                UZF ET =           5.0001
        UZF RECHARGE =  1152163385.2848          UZF RECHARGE =          18.8733

            IN - OUT = -1679355860.4218              IN - OUT =         -18.8733

          STORAGE:                                 STORAGE:
          --------                                 --------
      STORAGE CHANGE = -1679330372.6411        STORAGE CHANGE =         -18.8733

 PERCENT DISCREPANCY IS DIFFERENCE BETWEEN IN-OUT MINUS CHANGE IN STORAGE
 DIVIDED BY THE AVERAGE OF IN AND OUT TIMES 100

 PERCENT DISCREPANCY =          -0.00     PERCENT DISCREPANCY =           0.00






1
  VOLUMETRIC BUDGET FOR ENTIRE MODEL AT END OF TIME STEP   30, STRESS PERIOD  20
  ------------------------------------------------------------------------------

     CUMULATIVE VOLUMES      L**3       RATES FOR THIS TIME STEP      L**3/T
     ------------------                 ------------------------

           IN:                                      IN:
           ---                                      ---
             STORAGE     =    56402744.0000               STORAGE     =           5.1415
       CONSTANT HEAD     =           0.0000         CONSTANT HEAD     =           0.0000
               WELLS     =           0.0000                 WELLS     =           0.0000
     HEAD DEP BOUNDS     =    13763369.0000       HEAD DEP BOUNDS     =           0.2742
      STREAM LEAKAGE     =   558210688.0000        STREAM LEAKAGE     =          10.6128
        UZF RECHARGE     =  1152163968.0000          UZF RECHARGE     =          18.8733
               GW ET     =           0.0000                 GW ET     =           0.0000
     SURFACE LEAKAGE     =           0.0000       SURFACE LEAKAGE     =           0.0000
    SUPPLEMENTARY WELLS  =           0.0000      SUPPLEMENTARY WELLS  =           0.0000

                TOTAL IN =  1780540800.0000                  TOTAL IN =          34.9017

          OUT:                                     OUT:
          ----                                     ----
             STORAGE     =  1088508032.0000               STORAGE     =          15.2028
       CONSTANT HEAD     =           0.0000         CONSTANT HEAD     =           0.0000
               WELLS     =           0.0000                 WELLS     =           0.0000
     HEAD DEP BOUNDS     =    14441004.0000       HEAD DEP BOUNDS     =           0.2755
      STREAM LEAKAGE     =   544765568.0000        STREAM LEAKAGE     =           8.9211
        UZF RECHARGE     =           0.0000          UZF RECHARGE     =           0.0000
               GW ET     =   132620448.0000                 GW ET     =          10.5000
     SURFACE LEAKAGE     =           0.0000       SURFACE LEAKAGE     =           0.0000
    SUPPLEMENTARY WELLS  =       38908.9648      SUPPLEMENTARY WELLS  =           0.0000

               TOTAL OUT =  1780373888.0000                 TOTAL OUT =          34.8993

                IN - OUT =      166912.0000                  IN - OUT =       2.3575E-03

     PERCENT DISCREPANCY =           0.01         PERCENT DISCREPANCY =           0.01






         TIME SUMMARY AT END OF TIME STEP   30 IN STRESS PERIOD   20
                    SECONDS     MINUTES      HOURS       DAYS        YEARS
                    -----------------------------------------------------------
   TIME STEP LENGTH  87600.      1460.0      24.333      1.0139     2.77588E-03
 STRESS PERIOD TIME 2.62800E+06  43800.      730.00      30.417     8.32763E-02
         TOTAL TIME 5.00184E+07 8.33640E+05  13894.      578.92      1.5850    
1
1
                            STRESS PERIOD NO.   21, LENGTH =   2628000.    
                            -----------------------------------------------

                              NUMBER OF TIME STEPS =    30

                               MULTIPLIER FOR DELT =     1.000

                            INITIAL TIME STEP SIZE =   87600.00    

 WELL NO.  LAYER   ROW   COL   STRESS RATE         
 --------------------------------------------------
      1      1      6      4       0.000    
      2      1      6      7       0.000    
      3      1      7      4       0.000    
      4      1      7      5       0.000    
      5      1      8      4       0.000    
      6      1      8      5       0.000    
      7      1      9      4       0.000    
      8      1      9      5       0.000    
      9      1     10      4       0.000    
     10      1     10      5       0.000    

     10 WELLS

 REUSING NON-PARAMETER GHB CELLS FROM LAST STRESS PERIOD

      2 GHB CELLS

 REUSING STREAM SEGMENT DATA FROM LAST STRESS PERIOD



            AREAL INFILTRATION RATE
 READING ON UNIT   19 WITH FORMAT: (10F4.0)            

            1           2           3           4           5           6           7           8           9          10
 ........................................................................................................................
   1    0.000       0.000       0.000       0.000       0.000       0.000       0.000       0.000       0.000       0.000    
   2    0.000       0.000       0.000       0.000       0.000       0.000       0.000       0.000       0.000       0.000    
   3    0.000       0.000       0.000       0.000       0.000       0.000       0.000       0.000       0.000       0.000    
   4    0.000       0.000       0.000       0.000       0.000       0.000       0.000       0.000       0.000       0.000    
   5    0.000       0.000       0.000       0.000       0.000       0.000       0.000       0.000       0.000       0.000    
   6    0.000       0.000       0.000       0.000       0.000       0.000       0.000       0.000       0.000       0.000    
   7    0.000       0.000       0.000       0.000       0.000       0.000       0.000       0.000       0.000       0.000    
   8    0.000       0.000       0.000       0.000       0.000       0.000       0.000       0.000       0.000       0.000    
   9    0.000       0.000       0.000       0.000       0.000       0.000       0.000       0.000       0.000       0.000    
  10    0.000       0.000       0.000       0.000       0.000       0.000       0.000       0.000       0.000       0.000    
  11    0.000       0.000       0.000       0.000       0.000       0.000       0.000       0.000       0.000       0.000    
  12    0.000       0.000       0.000       0.000       0.000       0.000       0.000       0.000       0.000       0.000    
  13    0.000       0.000       0.000       0.000       0.000       0.000       0.000       0.000       0.000       0.000    
  14    0.000       0.000       0.000       0.000       0.000       0.000       0.000       0.000       0.000       0.000    
  15    0.000       0.000       0.000       0.000       0.000       0.000       0.000       0.000       0.000       0.000    

                  ET RATE =  8.500000E-08

 USING ET EXTINCTION DEPTH FROM PREVIOUS STRESS PERIOD. CURRENT PERIOD IS:      21

 USING EXTINCTION WATER CONTENT FROM PREVIOUS STRESS PERIOD. CURRENT PERIOD IS:      21

 PROCESSING AGO STRESS PERIOD DATA

 READING AGO STRESS PERIOD DATA

 READING IRRIGATION STREAM

 READING IRRIGATION WELL

 READING SUPPLEMENTAL WEL

 END PROCESSING AGO STRESS PERIOD DATA OPTIONS
 
 SOLVING FOR HEAD 
                                                   Max.-Head-Change                         Max.-Flux-Residual
  Residual-Control   Outer-Iter.   Inner-Iter.     Column Row Layer    Maximum-Head-Change  Column Row Layer    Maximum-Flux-Residual          L2-NORM 
          0                 1           2             6   13     1      -0.2364164255E-01       6   13    1        -0.1255547308E+01      0.3218023863E+01
          0                 2           2             6   13     1       0.2338252593E-02       6   13    1         0.1254373848E+00      0.4215504635E+00
          0                 3           2             8    2     1       0.8176046277E-03       8    2    1         0.2123678949E-01      0.1140700956E+00
          0                 4           2             8    2     1       0.3674020760E-03       8    2    1         0.9543053649E-02      0.4778672296E-01
          0                 5           2             8    2     1       0.1650971524E-03       8    2    1         0.4288304177E-02      0.2118085819E-01
          0                 6           1             8    2     1       0.7418861447E-04       8    2    1         0.1927007958E-02      0.9448747909E-02
          0                 7           1             8    2     1       0.3333762311E-04       8    2    1         0.8659267038E-03      0.4220435447E-02
          0                 8           1             8    2     1       0.1498068532E-04       8    2    1         0.3891154235E-03      0.1886105858E-02
          0                 9           1             8    2     1       0.6731756489E-05       8    2    1         0.1748539466E-03      0.8431922003E-03

    ------------------------------------------------
       NWT REQUIRED            9 OUTER ITERATIONS 
       AND A TOTAL OF         14 INNER ITERATIONS.
    ------------------------------------------------

 NO OUTPUT CONTROL FOR STRESS PERIOD   21   TIME STEP    1
 
 SOLVING FOR HEAD 
                                                   Max.-Head-Change                         Max.-Flux-Residual
  Residual-Control   Outer-Iter.   Inner-Iter.     Column Row Layer    Maximum-Head-Change  Column Row Layer    Maximum-Flux-Residual          L2-NORM 
          0                 1           2             6   13     1      -0.2314420411E-01       6   13    1        -0.1229035332E+01      0.3099138258E+01
          0                 2           2             6   13     1       0.2288935544E-02       6   13    1         0.1227885830E+00      0.4129416321E+00
          0                 3           2             8    2     1       0.8171416241E-03       8    2    1         0.2122475739E-01      0.1138042836E+00
          0                 4           2             8    2     1       0.3671941412E-03       8    2    1         0.9537650073E-02      0.4776438449E-01
          0                 5           2             8    2     1       0.1650037685E-03       8    2    1         0.4285877438E-02      0.2116886603E-01
          0                 6           1             8    2     1       0.7414667560E-04       8    2    1         0.1925918109E-02      0.9442096395E-02
          0                 7           1             8    2     1       0.3331878800E-04       8    2    1         0.8654372454E-03      0.4217000256E-02
          0                 8           1             8    2     1       0.1497222631E-04       8    2    1         0.3888956037E-03      0.1884418685E-02
          0                 9           1             8    2     1       0.6727957552E-05       8    2    1         0.1747552217E-03      0.8423699269E-03

    ------------------------------------------------
       NWT REQUIRED            9 OUTER ITERATIONS 
       AND A TOTAL OF         14 INNER ITERATIONS.
    ------------------------------------------------

 NO OUTPUT CONTROL FOR STRESS PERIOD   21   TIME STEP    2
 
 SOLVING FOR HEAD 
                                                   Max.-Head-Change                         Max.-Flux-Residual
  Residual-Control   Outer-Iter.   Inner-Iter.     Column Row Layer    Maximum-Head-Change  Column Row Layer    Maximum-Flux-Residual          L2-NORM 
          0                 1           2             6   13     1      -0.2265893766E-01       6   13    1        -0.1203177110E+01      0.2989736583E+01
          0                 2           2             6   13     1       0.2240859795E-02       6   13    1         0.1202045785E+00      0.4053222289E+00
          0                 3           2             8    2     1       0.8166799834E-03       8    2    1         0.2121276273E-01      0.1135498627E+00
          0                 4           2             8    2     1       0.3669867764E-03       8    2    1         0.9532262200E-02      0.4773824635E-01
          0                 5           2             8    2     1       0.1649106216E-03       8    2    1         0.4283457250E-02      0.2115544918E-01
          0                 6           1             8    2     1       0.7410483403E-04       8    2    1         0.1924830972E-02      0.9434955736E-02
          0                 7           1             8    2     1       0.3329999290E-04       8    2    1         0.8649489087E-03      0.4213382320E-02
          0                 8           1             8    2     1       0.1496378356E-04       8    2    1         0.3886762414E-03      0.1882633280E-02
          0                 9           1             8    2     1       0.6724164869E-05       8    2    1         0.1746566827E-03      0.8415232104E-03

    ------------------------------------------------
       NWT REQUIRED            9 OUTER ITERATIONS 
       AND A TOTAL OF         14 INNER ITERATIONS.
    ------------------------------------------------

 NO OUTPUT CONTROL FOR STRESS PERIOD   21   TIME STEP    3
 
 SOLVING FOR HEAD 
                                                   Max.-Head-Change                         Max.-Flux-Residual
  Residual-Control   Outer-Iter.   Inner-Iter.     Column Row Layer    Maximum-Head-Change  Column Row Layer    Maximum-Flux-Residual          L2-NORM 
          0                 1           2             6   13     1      -0.2218506355E-01       6   13    1        -0.1177964014E+01      0.2889143503E+01
          0                 2           2             6   13     1       0.2195175868E-02       6   13    1         0.1176855397E+00      0.4007176865E+00
          0                 3           2             8    2     1       0.8162200662E-03       8    2    1         0.2120081095E-01      0.1133875829E+00
          0                 4           2             8    2     1       0.3667802259E-03       8    2    1         0.9526894635E-02      0.4771065651E-01
          0                 5           2             8    2     1       0.1648178582E-03       8    2    1         0.4281046647E-02      0.2114108568E-01
          0                 6           1             8    2     1       0.7406317303E-04       8    2    1         0.1923748350E-02      0.9427527000E-02
          0                 7           1             8    2     1       0.3328128209E-04       8    2    1         0.8644626909E-03      0.4209694270E-02
          0                 8           1             8    2     1       0.1495538033E-04       8    2    1         0.3884578765E-03      0.1880850675E-02
          0                 9           1             8    2     1       0.6720390943E-05       8    2    1         0.1745586133E-03      0.8406771649E-03

    ------------------------------------------------
       NWT REQUIRED            9 OUTER ITERATIONS 
       AND A TOTAL OF         14 INNER ITERATIONS.
    ------------------------------------------------

 NO OUTPUT CONTROL FOR STRESS PERIOD   21   TIME STEP    4
 
 SOLVING FOR HEAD 
                                                   Max.-Head-Change                         Max.-Flux-Residual
  Residual-Control   Outer-Iter.   Inner-Iter.     Column Row Layer    Maximum-Head-Change  Column Row Layer    Maximum-Flux-Residual          L2-NORM 
          0                 1           2             6   13     1      -0.2171715996E-01       6   13    1        -0.1153271193E+01      0.2792577691E+01
          0                 2           2             6   13     1       0.2148610017E-02       6   13    1         0.1152201357E+00      0.3935472567E+00
          0                 3           2             8    2     1       0.8157616532E-03       8    2    1         0.2118889909E-01      0.1131590103E+00
          0                 4           2             8    2     1       0.3665743330E-03       8    2    1         0.9521544538E-02      0.4768029220E-01
          0                 5           2             8    2     1       0.1647253824E-03       8    2    1         0.4278643693E-02      0.2112524801E-01
          0                 6           1             8    2     1       0.7402163784E-04       8    2    1         0.1922669076E-02      0.9419211337E-02
          0                 7           1             8    2     1       0.3326262656E-04       8    2    1         0.8639779359E-03      0.4205527076E-02
          0                 8           1             8    2     1       0.1494700086E-04       8    2    1         0.3882401469E-03      0.1878825324E-02
          0                 9           1             8    2     1       0.6716627272E-05       8    2    1         0.1744608193E-03      0.8397127641E-03

    ------------------------------------------------
       NWT REQUIRED            9 OUTER ITERATIONS 
       AND A TOTAL OF         14 INNER ITERATIONS.
    ------------------------------------------------

 NO OUTPUT CONTROL FOR STRESS PERIOD   21   TIME STEP    5
 
 SOLVING FOR HEAD 
                                                   Max.-Head-Change                         Max.-Flux-Residual
  Residual-Control   Outer-Iter.   Inner-Iter.     Column Row Layer    Maximum-Head-Change  Column Row Layer    Maximum-Flux-Residual          L2-NORM 
          0                 1           2             6   13     1      -0.2125497303E-01       6   13    1        -0.1128960613E+01      0.2698284475E+01
          0                 2           2             6   13     1       0.2102702920E-02       6   13    1         0.1127935925E+00      0.3867323951E+00
          0                 3           2             8    2     1       0.8153047093E-03       8    2    1         0.2117702596E-01      0.1129681932E+00
          0                 4           2             8    2     1       0.3663690884E-03       8    2    1         0.9516211533E-02      0.4766420497E-01
          0                 5           2             8    2     1       0.1646331925E-03       8    2    1         0.4276248273E-02      0.2111599412E-01
          0                 6           1             8    2     1       0.7398022820E-04       8    2    1         0.1921593118E-02      0.9413836877E-02
          0                 7           1             8    2     1       0.3324402630E-04       8    2    1         0.8634946439E-03      0.4202653399E-02
          0                 8           1             8    2     1       0.1493864615E-04       8    2    1         0.3880230650E-03      0.1877363015E-02
          0                 9           1             8    2     1       0.6712874356E-05       8    2    1         0.1743633083E-03      0.8389914758E-03

    ------------------------------------------------
       NWT REQUIRED            9 OUTER ITERATIONS 
       AND A TOTAL OF         14 INNER ITERATIONS.
    ------------------------------------------------

 NO OUTPUT CONTROL FOR STRESS PERIOD   21   TIME STEP    6
 
 SOLVING FOR HEAD 
                                                   Max.-Head-Change                         Max.-Flux-Residual
  Residual-Control   Outer-Iter.   Inner-Iter.     Column Row Layer    Maximum-Head-Change  Column Row Layer    Maximum-Flux-Residual          L2-NORM 
          0                 1           2             6   13     1      -0.2079766891E-01       6   13    1        -0.1104953474E+01      0.2607807855E+01
          0                 2           2             6   13     1       0.2057375589E-02       6   13    1         0.1103977131E+00      0.3804334505E+00
          0                 3           2             8    2     1       0.8148493159E-03       8    2    1         0.2116519273E-01      0.1127765006E+00
          0                 4           2             8    2     1       0.3661645481E-03       8    2    1         0.9510896657E-02      0.4763801409E-01
          0                 5           2             8    2     1       0.1645413219E-03       8    2    1         0.4273861088E-02      0.2110226995E-01
          0                 6           1             8    2     1       0.7393896413E-04       8    2    1         0.1920520906E-02      0.9406619694E-02
          0                 7           1             8    2     1       0.3322549207E-04       8    2    1         0.8630130522E-03      0.4199026188E-02
          0                 8           1             8    2     1       0.1493032146E-04       8    2    1         0.3878067532E-03      0.1875593334E-02
          0                 9           1             8    2     1       0.6709134946E-05       8    2    1         0.1742661476E-03      0.8381453482E-03

    ------------------------------------------------
       NWT REQUIRED            9 OUTER ITERATIONS 
       AND A TOTAL OF         14 INNER ITERATIONS.
    ------------------------------------------------

 NO OUTPUT CONTROL FOR STRESS PERIOD   21   TIME STEP    7
 
 SOLVING FOR HEAD 
                                                   Max.-Head-Change                         Max.-Flux-Residual
  Residual-Control   Outer-Iter.   Inner-Iter.     Column Row Layer    Maximum-Head-Change  Column Row Layer    Maximum-Flux-Residual          L2-NORM 
          0                 1           2             6   13     1      -0.2034461377E-01       6   13    1        -0.1081188989E+01      0.2521607097E+01
          0                 2           2             6   13     1       0.2012547891E-02       6   13    1         0.1080263380E+00      0.3745233864E+00
          0                 3           2             8    2     1       0.8143955314E-03       8    2    1         0.2115340065E-01      0.1125229105E+00
          0                 4           2             8    2     1       0.3659607443E-03       8    2    1         0.9505600630E-02      0.4757522006E-01
          0                 5           2             8    2     1       0.1644497893E-03       8    2    1         0.4271482532E-02      0.2107173839E-01
          0                 6           1             8    2     1       0.7389785438E-04       8    2    1         0.1919452635E-02      0.9391774836E-02
          0                 7           1             8    2     1       0.3320702813E-04       8    2    1         0.8625332541E-03      0.4191940192E-02
          0                 8           1             8    2     1       0.1492202827E-04       8    2    1         0.3875912575E-03      0.1872255875E-02
          0                 9           1             8    2     1       0.6705410292E-05       8    2    1         0.1741693639E-03      0.8365889092E-03

    ------------------------------------------------
       NWT REQUIRED            9 OUTER ITERATIONS 
       AND A TOTAL OF         14 INNER ITERATIONS.
    ------------------------------------------------

 NO OUTPUT CONTROL FOR STRESS PERIOD   21   TIME STEP    8
 
 SOLVING FOR HEAD 
                                                   Max.-Head-Change                         Max.-Flux-Residual
  Residual-Control   Outer-Iter.   Inner-Iter.     Column Row Layer    Maximum-Head-Change  Column Row Layer    Maximum-Flux-Residual          L2-NORM 
          0                 1           2             6   13     1      -0.1989569011E-01       6   13    1        -0.1057641041E+01      0.2439862689E+01
          0                 2           2             6   13     1       0.1968174408E-02       6   13    1         0.1056764388E+00      0.3689855213E+00
          0                 3           2             8    2     1       0.8139430443E-03       8    2    1         0.2114164432E-01      0.1122760692E+00
          0                 4           2             8    2     1       0.3657574808E-03       8    2    1         0.9500319545E-02      0.4751582557E-01
          0                 5           2             8    2     1       0.1643584797E-03       8    2    1         0.4269110196E-02      0.2104387444E-01
          0                 6           1             8    2     1       0.7385683667E-04       8    2    1         0.1918386947E-02      0.9378634294E-02
          0                 7           1             8    2     1       0.3318860195E-04       8    2    1         0.8620545270E-03      0.4185855908E-02
          0                 8           1             8    2     1       0.1491375085E-04       8    2    1         0.3873762034E-03      0.1869473919E-02
          0                 9           1             8    2     1       0.6701691891E-05       8    2    1         0.1740727541E-03      0.8353273283E-03

    ------------------------------------------------
       NWT REQUIRED            9 OUTER ITERATIONS 
       AND A TOTAL OF         14 INNER ITERATIONS.
    ------------------------------------------------

 NO OUTPUT CONTROL FOR STRESS PERIOD   21   TIME STEP    9
 
 SOLVING FOR HEAD 
                                                   Max.-Head-Change                         Max.-Flux-Residual
  Residual-Control   Outer-Iter.   Inner-Iter.     Column Row Layer    Maximum-Head-Change  Column Row Layer    Maximum-Flux-Residual          L2-NORM 
          0                 1           2             6   13     1      -0.1945107324E-01       6   13    1        -0.1034304840E+01      0.2363790063E+01
          0                 2           2             6   13     1       0.1924247604E-02       6   13    1         0.1033475406E+00      0.3640621257E+00
          0                 3           2             8    2     1       0.8134921171E-03       8    2    1         0.2112992737E-01      0.1121039982E+00
          0                 4           2             8    2     1       0.3655549419E-03       8    2    1         0.9495056779E-02      0.4748324436E-01
          0                 5           2             8    2     1       0.1642675066E-03       8    2    1         0.4266746360E-02      0.2102784617E-01
          0                 6           1             8    2     1       0.7381597403E-04       8    2    1         0.1917325189E-02      0.9370639958E-02
          0                 7           1             8    2     1       0.3317024780E-04       8    2    1         0.8615776187E-03      0.4181972586E-02
          0                 8           1             8    2     1       0.1490550644E-04       8    2    1         0.3871619859E-03      0.1867624251E-02
          0                 9           1             8    2     1       0.6697988747E-05       8    2    1         0.1739765310E-03      0.8344582441E-03

    ------------------------------------------------
       NWT REQUIRED            9 OUTER ITERATIONS 
       AND A TOTAL OF         14 INNER ITERATIONS.
    ------------------------------------------------

 NO OUTPUT CONTROL FOR STRESS PERIOD   21   TIME STEP   10
 
 SOLVING FOR HEAD 
                                                   Max.-Head-Change                         Max.-Flux-Residual
  Residual-Control   Outer-Iter.   Inner-Iter.     Column Row Layer    Maximum-Head-Change  Column Row Layer    Maximum-Flux-Residual          L2-NORM 
          0                 1           2             6   13     1      -0.1901123170E-01       6   13    1        -0.1011196422E+01      0.2291728007E+01
          0                 2           2             6   13     1       0.1880795699E-02       6   13    1         0.1010413682E+00      0.3592089901E+00
          0                 3           2             8    2     1       0.8130426045E-03       8    2    1         0.2111824776E-01      0.1119106786E+00
          0                 4           2             8    2     1       0.3653530263E-03       8    2    1         0.9489810463E-02      0.4745175531E-01
          0                 5           2             8    2     1       0.1641768078E-03       8    2    1         0.4264389778E-02      0.2101256395E-01
          0                 6           1             8    2     1       0.7377523269E-04       8    2    1         0.1916266635E-02      0.9362754116E-02
          0                 7           1             8    2     1       0.3315194717E-04       8    2    1         0.8611021243E-03      0.4178024613E-02
          0                 8           1             8    2     1       0.1489728529E-04       8    2    1         0.3869483923E-03      0.1865698730E-02
          0                 9           1             8    2     1       0.6694296107E-05       8    2    1         0.1738805891E-03      0.8335420219E-03

    ------------------------------------------------
       NWT REQUIRED            9 OUTER ITERATIONS 
       AND A TOTAL OF         14 INNER ITERATIONS.
    ------------------------------------------------

 NO OUTPUT CONTROL FOR STRESS PERIOD   21   TIME STEP   11
 
 SOLVING FOR HEAD 
                                                   Max.-Head-Change                         Max.-Flux-Residual
  Residual-Control   Outer-Iter.   Inner-Iter.     Column Row Layer    Maximum-Head-Change  Column Row Layer    Maximum-Flux-Residual          L2-NORM 
          0                 1           2             6   13     1      -0.1857653985E-01       6   13    1        -0.9883301024E+00      0.2226463244E+01
          0                 2           2             6   13     1       0.1837839965E-02       6   13    1         0.9875918874E-01      0.3550969819E+00
          0                 3           2             8    2     1       0.8125945901E-03       8    2    1         0.2110660664E-01      0.1117625291E+00
          0                 4           2             8    2     1       0.3651517922E-03       8    2    1         0.9484581668E-02      0.4742123704E-01
          0                 5           2             8    2     1       0.1640864189E-03       8    2    1         0.4262041161E-02      0.2099695684E-01
          0                 6           1             8    2     1       0.7373463216E-04       8    2    1         0.1915211701E-02      0.9354868748E-02
          0                 7           1             8    2     1       0.3313371008E-04       8    2    1         0.8606282739E-03      0.4174176257E-02
          0                 8           1             8    2     1       0.1488909415E-04       8    2    1         0.3867355530E-03      0.1863862604E-02
          0                 9           1             8    2     1       0.6690616474E-05       8    2    1         0.1737849798E-03      0.8326745124E-03

    ------------------------------------------------
       NWT REQUIRED            9 OUTER ITERATIONS 
       AND A TOTAL OF         14 INNER ITERATIONS.
    ------------------------------------------------

 NO OUTPUT CONTROL FOR STRESS PERIOD   21   TIME STEP   12
 
 SOLVING FOR HEAD 
                                                   Max.-Head-Change                         Max.-Flux-Residual
  Residual-Control   Outer-Iter.   Inner-Iter.     Column Row Layer    Maximum-Head-Change  Column Row Layer    Maximum-Flux-Residual          L2-NORM 
          0                 1           2             6   13     1      -0.1814762588E-01       6   13    1        -0.9657370590E+00      0.2166340274E+01
          0                 2           2             8    2     1       0.1807320729E-02       6   13    1         0.9650413603E-01      0.3512903821E+00
          0                 3           2             8    2     1       0.8121478720E-03       8    2    1         0.2109500053E-01      0.1116057058E+00
          0                 4           2             8    2     1       0.3649511133E-03       8    2    1         0.9479367885E-02      0.4738555842E-01
          0                 5           2             8    2     1       0.1639962677E-03       8    2    1         0.4259698974E-02      0.2097967553E-01
          0                 6           1             8    2     1       0.7369413293E-04       8    2    1         0.1914159511E-02      0.9346446108E-02
          0                 7           1             8    2     1       0.3311551625E-04       8    2    1         0.8601555927E-03      0.4170150937E-02
          0                 8           1             8    2     1       0.1488092077E-04       8    2    1         0.3865232047E-03      0.1861967223E-02
          0                 9           1             8    2     1       0.6686944343E-05       8    2    1         0.1736895818E-03      0.8317908278E-03

    ------------------------------------------------
       NWT REQUIRED            9 OUTER ITERATIONS 
       AND A TOTAL OF         14 INNER ITERATIONS.
    ------------------------------------------------

 NO OUTPUT CONTROL FOR STRESS PERIOD   21   TIME STEP   13
 
 SOLVING FOR HEAD 
                                                   Max.-Head-Change                         Max.-Flux-Residual
  Residual-Control   Outer-Iter.   Inner-Iter.     Column Row Layer    Maximum-Head-Change  Column Row Layer    Maximum-Flux-Residual          L2-NORM 
          0                 1           2             6   13     1      -0.1772490996E-01       6   13    1        -0.9434389730E+00      0.2111100612E+01
          0                 2           2             8    2     1       0.1806329713E-02       6   13    1         0.9427830727E-01      0.3477938594E+00
          0                 3           2             8    2     1       0.8117027676E-03       8    2    1         0.2108343449E-01      0.1114425789E+00
          0                 4           2             8    2     1       0.3647511978E-03       8    2    1         0.9474173116E-02      0.4734454245E-01
          0                 5           2             8    2     1       0.1639064761E-03       8    2    1         0.4257365777E-02      0.2096044642E-01
          0                 6           1             8    2     1       0.7365380328E-04       8    2    1         0.1913111564E-02      0.9337328571E-02
          0                 7           1             8    2     1       0.3309740171E-04       8    2    1         0.8596849011E-03      0.4165882959E-02
          0                 8           1             8    2     1       0.1487278441E-04       8    2    1         0.3863117913E-03      0.1859988207E-02
          0                 9           1             8    2     1       0.6683289721E-05       8    2    1         0.1735946247E-03      0.8308798432E-03

    ------------------------------------------------
       NWT REQUIRED            9 OUTER ITERATIONS 
       AND A TOTAL OF         14 INNER ITERATIONS.
    ------------------------------------------------

 NO OUTPUT CONTROL FOR STRESS PERIOD   21   TIME STEP   14
 
 SOLVING FOR HEAD 
                                                   Max.-Head-Change                         Max.-Flux-Residual
  Residual-Control   Outer-Iter.   Inner-Iter.     Column Row Layer    Maximum-Head-Change  Column Row Layer    Maximum-Flux-Residual          L2-NORM 
          0                 1           2             6   13     1      -0.1730899924E-01       6   13    1        -0.9214691075E+00      0.2060111959E+01
          0                 2           2             8    2     1       0.1805289715E-02       6   13    1         0.9208480627E-01      0.3445893665E+00
          0                 3           2             8    2     1       0.8112356170E-03       8    2    1         0.2107129657E-01      0.1112924555E+00
          0                 4           2             8    2     1       0.3645413597E-03       8    2    1         0.9468720942E-02      0.4730517793E-01
          0                 5           2             8    2     1       0.1638122190E-03       8    2    1         0.4254916727E-02      0.2094125745E-01
          0                 6           1             8    2     1       0.7361146348E-04       8    2    1         0.1912011470E-02      0.9327990529E-02
          0                 7           1             8    2     1       0.3307838276E-04       8    2    1         0.8591907456E-03      0.4161430074E-02
          0                 8           1             8    2     1       0.1486424087E-04       8    2    1         0.3860898173E-03      0.1857895682E-02
          0                 9           1             8    2     1       0.6679452017E-05       8    2    1         0.1734949164E-03      0.8299074135E-03

    ------------------------------------------------
       NWT REQUIRED            9 OUTER ITERATIONS 
       AND A TOTAL OF         14 INNER ITERATIONS.
    ------------------------------------------------

 NO OUTPUT CONTROL FOR STRESS PERIOD   21   TIME STEP   15
 
 SOLVING FOR HEAD 
                                                   Max.-Head-Change                         Max.-Flux-Residual
  Residual-Control   Outer-Iter.   Inner-Iter.     Column Row Layer    Maximum-Head-Change  Column Row Layer    Maximum-Flux-Residual          L2-NORM 
          0                 1           2             6   13     1      -0.1690034716E-01       6   13    1        -0.8998535465E+00      0.2013144425E+01
          0                 2           2             8    2     1       0.1804305203E-02       6   13    1         0.8992669045E-01      0.3416795665E+00
          0                 3           2             8    2     1       0.8107933919E-03       8    2    1         0.2105980624E-01      0.1111704345E+00
          0                 4           2             8    2     1       0.3643427185E-03       8    2    1         0.9463559683E-02      0.4727681424E-01
          0                 5           2             8    2     1       0.1637229916E-03       8    2    1         0.4252598360E-02      0.2092716415E-01
          0                 6           1             8    2     1       0.7357138294E-04       8    2    1         0.1910970081E-02      0.9320976056E-02
          0                 7           1             8    2     1       0.3306037877E-04       8    2    1         0.8587229608E-03      0.4158022001E-02
          0                 8           1             8    2     1       0.1485615353E-04       8    2    1         0.3858796914E-03      0.1856267796E-02
          0                 9           1             8    2     1       0.6675819404E-05       8    2    1         0.1734005284E-03      0.8291511704E-03

    ------------------------------------------------
       NWT REQUIRED            9 OUTER ITERATIONS 
       AND A TOTAL OF         14 INNER ITERATIONS.
    ------------------------------------------------

 NO OUTPUT CONTROL FOR STRESS PERIOD   21   TIME STEP   16
 
 SOLVING FOR HEAD 
                                                   Max.-Head-Change                         Max.-Flux-Residual
  Residual-Control   Outer-Iter.   Inner-Iter.     Column Row Layer    Maximum-Head-Change  Column Row Layer    Maximum-Flux-Residual          L2-NORM 
          0                 1           2             6   13     1      -0.1649934373E-01       6   13    1        -0.8786153926E+00      0.1970023282E+01
          0                 2           2             8    2     1       0.1803323614E-02       6   13    1         0.8780585276E-01      0.3389721953E+00
          0                 3           2             8    2     1       0.8103524174E-03       8    2    1         0.2104834973E-01      0.1110298621E+00
          0                 4           2             8    2     1       0.3641446113E-03       8    2    1         0.9458412892E-02      0.4723818641E-01
          0                 5           2             8    2     1       0.1636339916E-03       8    2    1         0.4250286171E-02      0.2090870982E-01
          0                 6           1             8    2     1       0.7353139918E-04       8    2    1         0.1909931324E-02      0.9312097978E-02
          0                 7           1             8    2     1       0.3304241554E-04       8    2    1         0.8582562916E-03      0.4153813201E-02
          0                 8           1             8    2     1       0.1484808344E-04       8    2    1         0.3856700368E-03      0.1854295344E-02
          0                 9           1             8    2     1       0.6672193544E-05       8    2    1         0.1733063354E-03      0.8282223633E-03

    ------------------------------------------------
       NWT REQUIRED            9 OUTER ITERATIONS 
       AND A TOTAL OF         14 INNER ITERATIONS.
    ------------------------------------------------

 NO OUTPUT CONTROL FOR STRESS PERIOD   21   TIME STEP   17
 
 SOLVING FOR HEAD 
                                                   Max.-Head-Change                         Max.-Flux-Residual
  Residual-Control   Outer-Iter.   Inner-Iter.     Column Row Layer    Maximum-Head-Change  Column Row Layer    Maximum-Flux-Residual          L2-NORM 
          0                 1           2             6   13     1      -0.1610632152E-01       6   13    1        -0.8577751057E+00      0.1930124075E+01
          0                 2           2             8    2     1       0.1802345090E-02       6   13    1         0.8572471782E-01      0.3364798104E+00
          0                 3           2             8    2     1       0.8099128510E-03       8    2    1         0.2103692913E-01      0.1108913854E+00
          0                 4           2             8    2     1       0.3639471506E-03       8    2    1         0.9453282597E-02      0.4719905928E-01
          0                 5           2             8    2     1       0.1635452882E-03       8    2    1         0.4247981552E-02      0.2089047623E-01
          0                 6           1             8    2     1       0.7349155174E-04       8    2    1         0.1908896044E-02      0.9303495021E-02
          0                 7           1             8    2     1       0.3302451485E-04       8    2    1         0.8577912169E-03      0.4149789536E-02
          0                 8           1             8    2     1       0.1484004187E-04       8    2    1         0.3854611118E-03      0.1852427146E-02
          0                 9           1             8    2     1       0.6668581191E-05       8    2    1         0.1732124828E-03      0.8273602793E-03

    ------------------------------------------------
       NWT REQUIRED            9 OUTER ITERATIONS 
       AND A TOTAL OF         14 INNER ITERATIONS.
    ------------------------------------------------

 NO OUTPUT CONTROL FOR STRESS PERIOD   21   TIME STEP   18
 
 SOLVING FOR HEAD 
                                                   Max.-Head-Change                         Max.-Flux-Residual
  Residual-Control   Outer-Iter.   Inner-Iter.     Column Row Layer    Maximum-Head-Change  Column Row Layer    Maximum-Flux-Residual          L2-NORM 
          0                 1           2             6   13     1      -0.1572154328E-01       6   13    1        -0.8373495297E+00      0.1893100344E+01
          0                 2           2             8    2     1       0.1801317731E-02       6   13    1         0.8368493451E-01      0.3341433470E+00
          0                 3           2             8    2     1       0.8094514193E-03       8    2    1         0.2102493893E-01      0.1107386868E+00
          0                 4           2             8    2     1       0.3637398996E-03       8    2    1         0.9447897256E-02      0.4715226215E-01
          0                 5           2             8    2     1       0.1634522014E-03       8    2    1         0.4245562738E-02      0.2086922625E-01
          0                 6           1             8    2     1       0.7344974093E-04       8    2    1         0.1907809626E-02      0.9293719316E-02
          0                 7           1             8    2     1       0.3300573576E-04       8    2    1         0.8573032507E-03      0.4145308849E-02
          0                 8           1             8    2     1       0.1483160663E-04       8    2    1         0.3852419309E-03      0.1850380453E-02
          0                 9           1             8    2     1       0.6664792258E-05       8    2    1         0.1731140322E-03      0.8264287671E-03

    ------------------------------------------------
       NWT REQUIRED            9 OUTER ITERATIONS 
       AND A TOTAL OF         14 INNER ITERATIONS.
    ------------------------------------------------

 NO OUTPUT CONTROL FOR STRESS PERIOD   21   TIME STEP   19
 
 SOLVING FOR HEAD 
                                                   Max.-Head-Change                         Max.-Flux-Residual
  Residual-Control   Outer-Iter.   Inner-Iter.     Column Row Layer    Maximum-Head-Change  Column Row Layer    Maximum-Flux-Residual          L2-NORM 
          0                 1           2             6   13     1      -0.1534520708E-01       6   13    1        -0.8173519324E+00      0.1858858896E+01
          0                 2           2             8    2     1       0.1800345518E-02       6   13    1         0.8168722451E-01      0.3320406424E+00
          0                 3           2             8    2     1       0.8090146432E-03       8    2    1         0.2101359177E-01      0.1106065417E+00
          0                 4           2             8    2     1       0.3635436725E-03       8    2    1         0.9442799436E-02      0.4710833087E-01
          0                 5           2             8    2     1       0.1633640430E-03       8    2    1         0.4243272474E-02      0.2084805434E-01
          0                 6           1             8    2     1       0.7341013435E-04       8    2    1         0.1906780691E-02      0.9283702248E-02
          0                 7           1             8    2     1       0.3298794136E-04       8    2    1         0.8568409785E-03      0.4140666073E-02
          0                 8           1             8    2     1       0.1482361208E-04       8    2    1         0.3850342458E-03      0.1848254474E-02
          0                 9           1             8    2     1       0.6661200414E-05       8    2    1         0.1730207255E-03      0.8254612553E-03

    ------------------------------------------------
       NWT REQUIRED            9 OUTER ITERATIONS 
       AND A TOTAL OF         14 INNER ITERATIONS.
    ------------------------------------------------

 NO OUTPUT CONTROL FOR STRESS PERIOD   21   TIME STEP   20
 
 SOLVING FOR HEAD 
                                                   Max.-Head-Change                         Max.-Flux-Residual
  Residual-Control   Outer-Iter.   Inner-Iter.     Column Row Layer    Maximum-Head-Change  Column Row Layer    Maximum-Flux-Residual          L2-NORM 
          0                 1           2             6   13     1      -0.1497756810E-01       6   13    1        -0.7977988101E+00      0.1826943037E+01
          0                 2           2             8    2     1       0.1799324425E-02       6   13    1         0.7973418657E-01      0.3300722151E+00
          0                 3           2             8    2     1       0.8085560160E-03       8    2    1         0.2100167464E-01      0.1104727533E+00
          0                 4           2             8    2     1       0.3633376777E-03       8    2    1         0.9437446824E-02      0.4706266754E-01
          0                 5           2             8    2     1       0.1632715184E-03       8    2    1         0.4240868313E-02      0.2082585601E-01
          0                 6           1             8    2     1       0.7336857539E-04       8    2    1         0.1905700837E-02      0.9273001123E-02
          0                 7           1             8    2     1       0.3296927457E-04       8    2    1         0.8563559517E-03      0.4135596127E-02
          0                 8           1             8    2     1       0.1481522761E-04       8    2    1         0.3848163880E-03      0.1845883878E-02
          0                 9           1             8    2     1       0.6657434242E-05       8    2    1         0.1729228688E-03      0.8243654144E-03

    ------------------------------------------------
       NWT REQUIRED            9 OUTER ITERATIONS 
       AND A TOTAL OF         14 INNER ITERATIONS.
    ------------------------------------------------

 NO OUTPUT CONTROL FOR STRESS PERIOD   21   TIME STEP   21
 
 SOLVING FOR HEAD 
                                                   Max.-Head-Change                         Max.-Flux-Residual
  Residual-Control   Outer-Iter.   Inner-Iter.     Column Row Layer    Maximum-Head-Change  Column Row Layer    Maximum-Flux-Residual          L2-NORM 
          0                 1           2             6   13     1      -0.1461860208E-01       6   13    1        -0.7786912253E+00      0.1797206985E+01
          0                 2           2             8    2     1       0.1798358433E-02       6   13    1         0.7782538956E-01      0.3282793778E+00
          0                 3           2             8    2     1       0.8081220261E-03       8    2    1         0.2099040007E-01      0.1103651367E+00
          0                 4           2             8    2     1       0.3631426979E-03       8    2    1         0.9432381499E-02      0.4702878655E-01
          0                 5           2             8    2     1       0.1631839190E-03       8    2    1         0.4238592600E-02      0.2080946385E-01
          0                 6           1             8    2     1       0.7332921892E-04       8    2    1         0.1904678408E-02      0.9265106828E-02
          0                 7           1             8    2     1       0.3295159197E-04       8    2    1         0.8558965895E-03      0.4131859973E-02
          0                 8           1             8    2     1       0.1480728308E-04       8    2    1         0.3846100055E-03      0.1844136889E-02
          0                 9           1             8    2     1       0.6653864907E-05       8    2    1         0.1728301425E-03      0.8235546342E-03

    ------------------------------------------------
       NWT REQUIRED            9 OUTER ITERATIONS 
       AND A TOTAL OF         14 INNER ITERATIONS.
    ------------------------------------------------

 NO OUTPUT CONTROL FOR STRESS PERIOD   21   TIME STEP   22
 
 SOLVING FOR HEAD 
                                                   Max.-Head-Change                         Max.-Flux-Residual
  Residual-Control   Outer-Iter.   Inner-Iter.     Column Row Layer    Maximum-Head-Change  Column Row Layer    Maximum-Flux-Residual          L2-NORM 
          0                 1           2             6   13     1      -0.1426845104E-01       6   13    1        -0.7600393372E+00      0.1769387388E+01
          0                 2           2             8    2     1       0.1797343266E-02       6   13    1         0.7596195100E-01      0.3265719082E+00
          0                 3           2             8    2     1       0.8076659947E-03       8    2    1         0.2097855179E-01      0.1102397044E+00
          0                 4           2             8    2     1       0.3629378387E-03       8    2    1         0.9427059028E-02      0.4698647564E-01
          0                 5           2             8    2     1       0.1630918909E-03       8    2    1         0.4236201628E-02      0.2078973026E-01
          0                 6           1             8    2     1       0.7328787707E-04       8    2    1         0.1903604325E-02      0.9255866190E-02
          0                 7           1             8    2     1       0.3293302047E-04       8    2    1         0.8554140829E-03      0.4127568813E-02
          0                 8           1             8    2     1       0.1479893963E-04       8    2    1         0.3843932407E-03      0.1842158446E-02
          0                 9           1             8    2     1       0.6650116743E-05       8    2    1         0.1727327646E-03      0.8226468804E-03

    ------------------------------------------------
       NWT REQUIRED            9 OUTER ITERATIONS 
       AND A TOTAL OF         14 INNER ITERATIONS.
    ------------------------------------------------

 NO OUTPUT CONTROL FOR STRESS PERIOD   21   TIME STEP   23
 
 SOLVING FOR HEAD 
                                                   Max.-Head-Change                         Max.-Flux-Residual
  Residual-Control   Outer-Iter.   Inner-Iter.     Column Row Layer    Maximum-Head-Change  Column Row Layer    Maximum-Flux-Residual          L2-NORM 
          0                 1           2             6   13     1      -0.1392747339E-01       6   13    1        -0.7418395859E+00      0.1743493354E+01
          0                 2           2             8    2     1       0.1796383189E-02       6   13    1         0.7414378350E-01      0.3250871368E+00
          0                 3           2             8    2     1       0.8072346541E-03       8    2    1         0.2096734621E-01      0.1101300228E+00
          0                 4           2             8    2     1       0.3627440462E-03       8    2    1         0.9422024617E-02      0.4693176535E-01
          0                 5           2             8    2     1       0.1630048230E-03       8    2    1         0.4233939767E-02      0.2075871506E-01
          0                 6           1             8    2     1       0.7324875895E-04       8    2    1         0.1902588113E-02      0.9239982361E-02
          0                 7           1             8    2     1       0.3291544492E-04       8    2    1         0.8549575128E-03      0.4119912453E-02
          0                 8           1             8    2     1       0.1479104337E-04       8    2    1         0.3841881105E-03      0.1838601209E-02
          0                 9           1             8    2     1       0.6646568918E-05       8    2    1         0.1726405983E-03      0.8210339698E-03

    ------------------------------------------------
       NWT REQUIRED            9 OUTER ITERATIONS 
       AND A TOTAL OF         14 INNER ITERATIONS.
    ------------------------------------------------

 NO OUTPUT CONTROL FOR STRESS PERIOD   21   TIME STEP   24
 
 SOLVING FOR HEAD 
                                                   Max.-Head-Change                         Max.-Flux-Residual
  Residual-Control   Outer-Iter.   Inner-Iter.     Column Row Layer    Maximum-Head-Change  Column Row Layer    Maximum-Flux-Residual          L2-NORM 
          0                 1           2             6   13     1      -0.1359591020E-01       6   13    1        -0.7241359494E+00      0.1719233234E+01
          0                 2           2             8    2     1       0.1795374116E-02       6   13    1         0.7237499421E-01      0.3238018153E+00
          0                 3           2             8    2     1       0.8067814089E-03       8    2    1         0.2095556928E-01      0.1101088461E+00
          0                 4           2             8    2     1       0.3625404598E-03       8    2    1         0.9416734765E-02      0.4692637010E-01
          0                 5           2             8    2     1       0.1629133769E-03       8    2    1         0.4231563705E-02      0.2075216716E-01
          0                 6           1             8    2     1       0.7320768296E-04       8    2    1         0.1901520834E-02      0.9235442043E-02
          0                 7           1             8    2     1       0.3289699373E-04       8    2    1         0.8544781052E-03      0.4117299218E-02
          0                 8           1             8    2     1       0.1478275544E-04       8    2    1         0.3839727710E-03      0.1837222497E-02
          0                 9           1             8    2     1       0.6642845765E-05       8    2    1         0.1725438707E-03      0.8203408958E-03

    ------------------------------------------------
       NWT REQUIRED            9 OUTER ITERATIONS 
       AND A TOTAL OF         14 INNER ITERATIONS.
    ------------------------------------------------

 NO OUTPUT CONTROL FOR STRESS PERIOD   21   TIME STEP   25
 
 SOLVING FOR HEAD 
                                                   Max.-Head-Change                         Max.-Flux-Residual
  Residual-Control   Outer-Iter.   Inner-Iter.     Column Row Layer    Maximum-Head-Change  Column Row Layer    Maximum-Flux-Residual          L2-NORM 
          0                 1           2             6   13     1      -0.1327317930E-01       6   13    1        -0.7069169166E+00      0.1696212832E+01
          0                 2           2             8    2     1       0.1794420064E-02       6   13    1         0.7065434824E-01      0.3223928016E+00
          0                 3           2             8    2     1       0.8063527654E-03       8    2    1         0.2094443398E-01      0.1099865716E+00
          0                 4           2             8    2     1       0.3623478743E-03       8    2    1         0.9411731805E-02      0.4688207809E-01
          0                 5           2             8    2     1       0.1628268492E-03       8    2    1         0.4229315914E-02      0.2073150626E-01
          0                 6           1             8    2     1       0.7316880595E-04       8    2    1         0.1900510910E-02      0.9225781323E-02
          0                 7           1             8    2     1       0.3287952647E-04       8    2    1         0.8540243492E-03      0.4112814262E-02
          0                 8           1             8    2     1       0.1477490721E-04       8    2    1         0.3837688922E-03      0.1835153444E-02
          0                 9           1             8    2     1       0.6639319449E-05       8    2    1         0.1724522641E-03      0.8193911489E-03

    ------------------------------------------------
       NWT REQUIRED            9 OUTER ITERATIONS 
       AND A TOTAL OF         14 INNER ITERATIONS.
    ------------------------------------------------

 NO OUTPUT CONTROL FOR STRESS PERIOD   21   TIME STEP   26
 
 SOLVING FOR HEAD 
                                                   Max.-Head-Change                         Max.-Flux-Residual
  Residual-Control   Outer-Iter.   Inner-Iter.     Column Row Layer    Maximum-Head-Change  Column Row Layer    Maximum-Flux-Residual          L2-NORM 
          0                 1           2             6   13     1      -0.1295907197E-01       6   13    1        -0.6901499796E+00      0.1674632051E+01
          0                 2           2             8    2     1       0.1793416723E-02       6   13    1         0.6897887110E-01      0.3210511774E+00
          0                 3           2             8    2     1       0.8059020292E-03       8    2    1         0.2093272365E-01      0.1098553621E+00
          0                 4           2             8    2     1       0.3621453866E-03       8    2    1         0.9406471105E-02      0.4683349844E-01
          0                 5           2             8    2     1       0.1627358831E-03       8    2    1         0.4226952601E-02      0.2070927929E-01
          0                 6           1             8    2     1       0.7312794006E-04       8    2    1         0.1899449210E-02      0.9215564973E-02
          0                 7           1             8    2     1       0.3286116732E-04       8    2    1         0.8535473819E-03      0.4108137912E-02
          0                 8           1             8    2     1       0.1476665929E-04       8    2    1         0.3835546167E-03      0.1833021669E-02
          0                 9           1             8    2     1       0.6635614054E-05       8    2    1         0.1723560021E-03      0.8184217866E-03

    ------------------------------------------------
       NWT REQUIRED            9 OUTER ITERATIONS 
       AND A TOTAL OF         14 INNER ITERATIONS.
    ------------------------------------------------

 NO OUTPUT CONTROL FOR STRESS PERIOD   21   TIME STEP   27
 
 SOLVING FOR HEAD 
                                                   Max.-Head-Change                         Max.-Flux-Residual
  Residual-Control   Outer-Iter.   Inner-Iter.     Column Row Layer    Maximum-Head-Change  Column Row Layer    Maximum-Flux-Residual          L2-NORM 
          0                 1           2             6   13     1      -0.1265336632E-01       6   13    1        -0.6738249484E+00      0.1654217063E+01
          0                 2           2             8    2     1       0.1792416396E-02       6   13    1         0.6734753873E-01      0.3197955290E+00
          0                 3           2             8    2     1       0.8054526417E-03       8    2    1         0.2092104845E-01      0.1097350868E+00
          0                 4           2             8    2     1       0.3619435023E-03       8    2    1         0.9401226131E-02      0.4678976516E-01
          0                 5           2             8    2     1       0.1626451871E-03       8    2    1         0.4224596324E-02      0.2068943073E-01
          0                 6           1             8    2     1       0.7308719447E-04       8    2    1         0.1898390653E-02      0.9206474840E-02
          0                 7           1             8    2     1       0.3284286220E-04       8    2    1         0.8530718229E-03      0.4103980065E-02
          0                 8           1             8    2     1       0.1475843539E-04       8    2    1         0.3833409688E-03      0.1831120990E-02
          0                 9           1             8    2     1       0.6631919664E-05       8    2    1         0.1722600193E-03      0.8175553908E-03

    ------------------------------------------------
       NWT REQUIRED            9 OUTER ITERATIONS 
       AND A TOTAL OF         14 INNER ITERATIONS.
    ------------------------------------------------

 NO OUTPUT CONTROL FOR STRESS PERIOD   21   TIME STEP   28
 
 SOLVING FOR HEAD 
                                                   Max.-Head-Change                         Max.-Flux-Residual
  Residual-Control   Outer-Iter.   Inner-Iter.     Column Row Layer    Maximum-Head-Change  Column Row Layer    Maximum-Flux-Residual          L2-NORM 
          0                 1           2             6   13     1      -0.1235602445E-01       6   13    1        -0.6579413320E+00      0.1634845309E+01
          0                 2           2             8    2     1       0.1791471290E-02       6   13    1         0.6576066202E-01      0.3185699713E+00
          0                 3           2             8    2     1       0.8050280615E-03       8    2    1         0.2091001777E-01      0.1095978126E+00
          0                 4           2             8    2     1       0.3617527616E-03       8    2    1         0.9396270688E-02      0.4673813425E-01
          0                 5           2             8    2     1       0.1625594968E-03       8    2    1         0.4222370113E-02      0.2066636267E-01
          0                 6           1             8    2     1       0.7304869813E-04       8    2    1         0.1897390533E-02      0.9196091516E-02
          0                 7           1             8    2     1       0.3282556727E-04       8    2    1         0.8526225158E-03      0.4099303551E-02
          0                 8           1             8    2     1       0.1475066544E-04       8    2    1         0.3831391136E-03      0.1829015534E-02
          0                 9           1             8    2     1       0.6628428614E-05       8    2    1         0.1721693319E-03      0.8166078510E-03

    ------------------------------------------------
       NWT REQUIRED            9 OUTER ITERATIONS 
       AND A TOTAL OF         14 INNER ITERATIONS.
    ------------------------------------------------

 NO OUTPUT CONTROL FOR STRESS PERIOD   21   TIME STEP   29
 
 SOLVING FOR HEAD 
                                                   Max.-Head-Change                         Max.-Flux-Residual
  Residual-Control   Outer-Iter.   Inner-Iter.     Column Row Layer    Maximum-Head-Change  Column Row Layer    Maximum-Flux-Residual          L2-NORM 
          0                 1           2             6   13     1      -0.1241388537E-01       6   13    1        -0.6608326200E+00      0.1653372830E+01
          0                 2           2             8    2     1       0.1790476782E-02       6   13    1         0.6604774872E-01      0.3173216462E+00
          0                 3           2             8    2     1       0.8045812789E-03       8    2    1         0.2089841046E-01      0.1092506097E+00
          0                 4           2             8    2     1       0.3615520432E-03       8    2    1         0.9391056102E-02      0.4665787898E-01
          0                 5           2             8    2     1       0.1624693227E-03       8    2    1         0.4220027442E-02      0.2063679113E-01
          0                 6           1             8    2     1       0.7300818639E-04       8    2    1         0.1896338071E-02      0.9183274790E-02
          0                 7           1             8    2     1       0.3280736669E-04       8    2    1         0.8521496883E-03      0.4093581068E-02
          0                 8           1             8    2     1       0.1474248856E-04       8    2    1         0.3829266910E-03      0.1826449683E-02
          0                 9           1             8    2     1       0.6624755233E-05       8    2    1         0.1720739012E-03      0.8154566773E-03

    ------------------------------------------------
       NWT REQUIRED            9 OUTER ITERATIONS 
       AND A TOTAL OF         14 INNER ITERATIONS.
    ------------------------------------------------

 NO OUTPUT CONTROL FOR STRESS PERIOD   21   TIME STEP   30



 STREAM LISTING     PERIOD     21   STEP       30

 LAYER ROW COL. STREAM  RCH.  FLOW INTO     FLOW TO   FLOW OUT OF   OVRLND.     DIRECT     STREAM       STREAM     STREAM     STREAM   STREAMBED  STREAMBED
                SEG.NO.  NO.  STRM. RCH.    AQUIFER    STRM. RCH.    RUNOFF     PRECIP       ET          HEAD       DEPTH      WIDTH   CONDCTNC.   GRADIENT

   1    1    1     1     1    1.0292E+01  1.5099E-01   1.0141E+01  0.000E+00  0.000E+00  0.000E+00  1.09395E+03  9.056E-01  8.591E+00  3.866E-02  1.302E+00
   1    2    2     1     2    1.0141E+01  2.3238E-01   9.9089E+00  0.000E+00  0.000E+00  0.000E+00  1.08896E+03  9.007E-01  8.511E+00  5.957E-02  1.300E+00
   1    3    3     1     3    9.9089E+00  1.9655E-01   9.7123E+00  0.000E+00  0.000E+00  0.000E+00  1.08331E+03  8.943E-01  8.412E+00  5.047E-02  1.298E+00
   1    3    4     1     4    9.7123E+00  1.7964E-01   9.5327E+00  0.000E+00  0.000E+00  0.000E+00  1.07830E+03  8.886E-01  8.324E+00  4.620E-02  1.296E+00
   1    4    5     2     1    7.5327E+00  2.7935E-01   7.2533E+00  0.000E+00  0.000E+00  0.000E+00  1.07252E+03  5.813E-01  1.200E+01  7.800E-02  1.194E+00
   1    5    6     2     2    7.2533E+00  2.1418E-01   7.0391E+00  0.000E+00  0.000E+00  0.000E+00  1.06708E+03  5.696E-01  1.200E+01  6.000E-02  1.190E+00
   1    6    6     2     3    7.0391E+00  2.1356E-01   6.8256E+00  0.000E+00  0.000E+00  0.000E+00  1.06235E+03  5.593E-01  1.200E+01  6.000E-02  1.186E+00
   1    7    6     2     4    6.8256E+00  2.1294E-01   6.6127E+00  0.000E+00  0.000E+00  0.000E+00  1.05762E+03  5.489E-01  1.200E+01  6.000E-02  1.183E+00
   1    8    6     2     5    6.6127E+00  2.1231E-01   6.4003E+00  0.000E+00  0.000E+00  0.000E+00  1.05290E+03  5.385E-01  1.200E+01  6.000E-02  1.179E+00
   1    3    5     3     1    2.0000E+00  2.8252E-01   1.7175E+00  0.000E+00  0.000E+00  0.000E+00  1.07555E+03  1.909E+00  9.636E+00  7.227E-02  1.955E+00
   1    3    6     3     2    1.7175E+00  2.4905E-01   1.4684E+00  0.000E+00  0.000E+00  0.000E+00  1.07264E+03  1.727E+00  8.909E+00  6.682E-02  1.864E+00
   1    3    7     3     3    1.4684E+00  1.9718E-01   1.2712E+00  0.000E+00  0.000E+00  0.000E+00  1.06987E+03  1.555E+00  8.218E+00  5.547E-02  1.777E+00
   1    4    8     3     4    1.2712E+00  2.2567E-01   1.0456E+00  0.000E+00  0.000E+00  0.000E+00  1.06682E+03  1.364E+00  7.455E+00  6.709E-02  1.682E+00
   1    5    8     3     5    1.0456E+00  1.5790E-01   8.8768E-01  0.000E+00  0.000E+00  0.000E+00  1.06362E+03  1.164E+00  6.655E+00  4.991E-02  1.582E+00
   1    6    8     3     6    8.8768E-01  5.5980E-02   8.3170E-01  0.000E+00  0.000E+00  0.000E+00  1.06158E+03  1.036E+00  6.145E+00  1.844E-02  1.518E+00
   1    5   10     4     1    1.0000E+01  9.0919E-02   9.9091E+00  0.000E+00  0.000E+00  0.000E+00  1.07836E+03  6.368E-01  1.000E+01  2.500E-02  1.212E+00
   1    5    9     4     2    9.9091E+00  1.8158E-01   9.7275E+00  0.000E+00  0.000E+00  0.000E+00  1.07154E+03  6.315E-01  1.000E+01  5.000E-02  1.211E+00
   1    6    8     4     3    9.7275E+00  1.2689E-01   9.6006E+00  0.000E+00  0.000E+00  0.000E+00  1.06381E+03  6.256E-01  1.000E+01  3.500E-02  1.209E+00
   1    6    8     5     1    1.0432E+01  2.2686E-01   1.0205E+01  0.000E+00  0.000E+00  0.000E+00  1.05868E+03  6.790E-01  1.542E+01  6.166E-02  1.226E+00
   1    7    7     5     2    1.0205E+01  2.7894E-01   9.9265E+00  0.000E+00  0.000E+00  0.000E+00  1.05417E+03  6.732E-01  1.519E+01  7.594E-02  1.224E+00
   1    8    7     5     3    9.9265E+00  1.9221E-01   9.7343E+00  0.000E+00  0.000E+00  0.000E+00  1.04992E+03  6.676E-01  1.497E+01  5.241E-02  1.223E+00
   1    8    6     5     4    9.7343E+00  1.3577E-01   9.5985E+00  0.000E+00  0.000E+00  0.000E+00  1.04691E+03  6.637E-01  1.482E+01  3.706E-02  1.221E+00
   1    9    6     6     1    1.0999E+01  2.2449E-01   1.0774E+01  0.000E+00  0.000E+00  0.000E+00  1.04347E+03  7.415E-01  1.200E+01  6.000E-02  1.247E+00
   1   10    7     6     2    1.0774E+01  2.2394E-01   1.0550E+01  0.000E+00  0.000E+00  0.000E+00  1.03891E+03  7.323E-01  1.200E+01  6.000E-02  1.244E+00
   1   11    7     6     3    1.0550E+01  2.2338E-01   1.0327E+01  0.000E+00  0.000E+00  0.000E+00  1.03436E+03  7.230E-01  1.200E+01  6.000E-02  1.241E+00
   1   12    7     6     4    1.0327E+01  2.2282E-01   1.0104E+01  0.000E+00  0.000E+00  0.000E+00  1.02980E+03  7.137E-01  1.200E+01  6.000E-02  1.238E+00
   1   13    7     6     5    1.0104E+01 -4.2020E-02   1.0146E+01  0.000E+00  0.000E+00  0.000E+00  1.02662E+03  7.099E-01  1.200E+01  2.400E-01 -5.836E-02
   1   14    9     7     1    1.5000E+02  1.1689E+00   1.4883E+02  0.000E+00  0.000E+00  0.000E+00  1.03987E+03  2.288E+00  5.530E+01  5.593E-01  6.966E-01
   1   13    8     7     2    1.4883E+02  1.6638E+00   1.4717E+02  0.000E+00  0.000E+00  0.000E+00  1.03478E+03  2.281E+00  5.526E+01  6.148E-01  9.020E-01
   1   13    7     7     3    1.4717E+02  1.6181E+00   1.4555E+02  0.000E+00  0.000E+00  0.000E+00  1.02969E+03  2.272E+00  5.522E+01  5.585E-01  9.657E-01
   1   13    6     8     1    1.5570E+02  1.0175E+00   1.5468E+02  0.000E+00  0.000E+00  0.000E+00  1.02473E+03  2.853E+00  4.137E+01  4.216E-01  8.046E-01
   1   13    5     8     2    1.5468E+02  2.7380E-01   1.5440E+02  0.000E+00  0.000E+00  0.000E+00  1.01847E+03  2.849E+00  4.130E+01  4.209E-01  2.168E-01
   1   13    4     8     3    1.5440E+02 -1.6705E+00   1.5607E+02  0.000E+00  0.000E+00  0.000E+00  1.01223E+03  2.853E+00  4.137E+01  4.216E+00 -1.321E-01
   1   13    3     8     4    1.5607E+02 -2.6158E+00   1.5869E+02  0.000E+00  0.000E+00  0.000E+00  1.00599E+03  2.868E+00  4.159E+01  4.238E+00 -2.057E-01
   1   13    2     8     5    1.5869E+02 -9.6322E-01   1.5965E+02  0.000E+00  0.000E+00  0.000E+00  9.99755E+02  2.880E+00  4.176E+01  4.256E+00 -7.544E-02
   1   13    1     8     6    1.5965E+02 -4.4004E-01   1.6009E+02  0.000E+00  0.000E+00  0.000E+00  9.94760E+02  2.885E+00  4.183E+01  2.558E+00 -5.735E-02
   1    6    8     9     1    5.0000E+00  0.0000E+00   5.0000E+00  0.000E+00  0.000E+00  0.000E+00  1.07886E+03  3.555E-01  4.000E+00  0.000E+00  1.119E+00





UNSATURATED ZONE PACKAGE VOLUMETRIC BUDGET FOR  TIME STEP    30 STRESS PERIOD   21
  ------------------------------------------------------------------------------



     CUMULATIVE VOLUMES      L**3       RATES FOR THIS TIME STEP      L**3/T
     ------------------                 ------------------------

           IN:                                      IN:
           ---                                      ---
        INFILTRATION =    67370102.0104          INFILTRATION =           5.0001

          OUT:                                     OUT:
          ----                                     ----
              UZF ET =   594562577.1473                UZF ET =           5.0001
        UZF RECHARGE =  1200612009.8480          UZF RECHARGE =          18.0823

            IN - OUT = -1727804484.9849              IN - OUT =         -18.0823

          STORAGE:                                 STORAGE:
          --------                                 --------
      STORAGE CHANGE = -1727778997.1740        STORAGE CHANGE =         -18.0823

 PERCENT DISCREPANCY IS DIFFERENCE BETWEEN IN-OUT MINUS CHANGE IN STORAGE
 DIVIDED BY THE AVERAGE OF IN AND OUT TIMES 100

 PERCENT DISCREPANCY =          -0.00     PERCENT DISCREPANCY =           0.00






1
  VOLUMETRIC BUDGET FOR ENTIRE MODEL AT END OF TIME STEP   30, STRESS PERIOD  21
  ------------------------------------------------------------------------------

     CUMULATIVE VOLUMES      L**3       RATES FOR THIS TIME STEP      L**3/T
     ------------------                 ------------------------

           IN:                                      IN:
           ---                                      ---
             STORAGE     =    73416752.0000               STORAGE     =           5.0477
       CONSTANT HEAD     =           0.0000         CONSTANT HEAD     =           0.0000
               WELLS     =           0.0000                 WELLS     =           0.0000
     HEAD DEP BOUNDS     =    14484154.0000       HEAD DEP BOUNDS     =           0.2744
      STREAM LEAKAGE     =   586993024.0000        STREAM LEAKAGE     =          10.9301
        UZF RECHARGE     =  1200612736.0000          UZF RECHARGE     =          18.0823
               GW ET     =           0.0000                 GW ET     =           0.0000
     SURFACE LEAKAGE     =           0.0000       SURFACE LEAKAGE     =           0.0000
    SUPPLEMENTARY WELLS  =           0.0000      SUPPLEMENTARY WELLS  =           0.0000

                TOTAL IN =  1875506688.0000                  TOTAL IN =          34.3344

          OUT:                                     OUT:
          ----                                     ----
             STORAGE     =  1127419008.0000               STORAGE     =          14.2468
       CONSTANT HEAD     =           0.0000         CONSTANT HEAD     =           0.0000
               WELLS     =           0.0000                 WELLS     =           0.0000
     HEAD DEP BOUNDS     =    15145215.0000       HEAD DEP BOUNDS     =           0.2634
      STREAM LEAKAGE     =   562129344.0000        STREAM LEAKAGE     =           5.7315
        UZF RECHARGE     =           0.0000          UZF RECHARGE     =           0.0000
               GW ET     =   170601536.0000                 GW ET     =          14.0905
     SURFACE LEAKAGE     =           0.0000       SURFACE LEAKAGE     =           0.0000
    SUPPLEMENTARY WELLS  =       38908.9648      SUPPLEMENTARY WELLS  =           0.0000

               TOTAL OUT =  1875333888.0000                 TOTAL OUT =          34.3322

                IN - OUT =      172800.0000                  IN - OUT =       2.1744E-03

     PERCENT DISCREPANCY =           0.01         PERCENT DISCREPANCY =           0.01






         TIME SUMMARY AT END OF TIME STEP   30 IN STRESS PERIOD   21
                    SECONDS     MINUTES      HOURS       DAYS        YEARS
                    -----------------------------------------------------------
   TIME STEP LENGTH  87600.      1460.0      24.333      1.0139     2.77588E-03
 STRESS PERIOD TIME 2.62800E+06  43800.      730.00      30.417     8.32763E-02
         TOTAL TIME 5.26464E+07 8.77440E+05  14624.      609.33      1.6683    
1
1
                            STRESS PERIOD NO.   22, LENGTH =   2628000.    
                            -----------------------------------------------

                              NUMBER OF TIME STEPS =    30

                               MULTIPLIER FOR DELT =     1.000

                            INITIAL TIME STEP SIZE =   87600.00    

 WELL NO.  LAYER   ROW   COL   STRESS RATE         
 --------------------------------------------------
      1      1      6      4       0.000    
      2      1      6      7       0.000    
      3      1      7      4       0.000    
      4      1      7      5       0.000    
      5      1      8      4       0.000    
      6      1      8      5       0.000    
      7      1      9      4       0.000    
      8      1      9      5       0.000    
      9      1     10      4       0.000    
     10      1     10      5       0.000    

     10 WELLS

 REUSING NON-PARAMETER GHB CELLS FROM LAST STRESS PERIOD

      2 GHB CELLS

 REUSING STREAM SEGMENT DATA FROM LAST STRESS PERIOD



            AREAL INFILTRATION RATE
 READING ON UNIT   19 WITH FORMAT: (10F4.0)            

            1           2           3           4           5           6           7           8           9          10
 ........................................................................................................................
   1    0.000       0.000       0.000       0.000       0.000       0.000       0.000       0.000       0.000       0.000    
   2    0.000       0.000       0.000       0.000       0.000       0.000       0.000       0.000       0.000       0.000    
   3    0.000       0.000       0.000       0.000       0.000       0.000       0.000       0.000       0.000       0.000    
   4    0.000       0.000       0.000       0.000       0.000       0.000       0.000       0.000       0.000       0.000    
   5    0.000       0.000       0.000       0.000       0.000       0.000       0.000       0.000       0.000       0.000    
   6    0.000       0.000       0.000       0.000       0.000       0.000       0.000       0.000       0.000       0.000    
   7    0.000       0.000       0.000       0.000       0.000       0.000       0.000       0.000       0.000       0.000    
   8    0.000       0.000       0.000       0.000       0.000       0.000       0.000       0.000       0.000       0.000    
   9    0.000       0.000       0.000       0.000       0.000       0.000       0.000       0.000       0.000       0.000    
  10    0.000       0.000       0.000       0.000       0.000       0.000       0.000       0.000       0.000       0.000    
  11    0.000       0.000       0.000       0.000       0.000       0.000       0.000       0.000       0.000       0.000    
  12    0.000       0.000       0.000       0.000       0.000       0.000       0.000       0.000       0.000       0.000    
  13    0.000       0.000       0.000       0.000       0.000       0.000       0.000       0.000       0.000       0.000    
  14    0.000       0.000       0.000       0.000       0.000       0.000       0.000       0.000       0.000       0.000    
  15    0.000       0.000       0.000       0.000       0.000       0.000       0.000       0.000       0.000       0.000    

                  ET RATE =  2.500000E-08

 USING ET EXTINCTION DEPTH FROM PREVIOUS STRESS PERIOD. CURRENT PERIOD IS:      22

 USING EXTINCTION WATER CONTENT FROM PREVIOUS STRESS PERIOD. CURRENT PERIOD IS:      22

 PROCESSING AGO STRESS PERIOD DATA

 READING AGO STRESS PERIOD DATA

 READING IRRIGATION STREAM

 READING IRRIGATION WELL

 READING SUPPLEMENTAL WEL

 END PROCESSING AGO STRESS PERIOD DATA OPTIONS
 
 SOLVING FOR HEAD 
                                                   Max.-Head-Change                         Max.-Flux-Residual
  Residual-Control   Outer-Iter.   Inner-Iter.     Column Row Layer    Maximum-Head-Change  Column Row Layer    Maximum-Flux-Residual          L2-NORM 
          0                 1           2             3   13     1       0.2252102494E-01       3   13    1         0.1273707204E+01      0.3110323251E+01
          0                 2           2             4    6     1      -0.7189920198E-01       4    6    1        -0.3966071306E+01      0.3979942074E+01
          0                 3           2             4    6     1       0.9703597585E-02       4    6    1         0.5402833631E+00      0.5511379936E+00
          0                 4           2             4    6     1       0.4005490721E-01       4    6    1         0.2228643086E+01      0.2232619936E+01
          0                 5           2             4    6     1      -0.3171751526E-02       4    6    1        -0.1785380992E+00      0.1807578662E+00
          0                 6           2             4    6     1       0.2226711687E-03       4    6    1         0.1255690657E-01      0.1578730372E-01
          0                 7           1             3    6     1       0.4201185776E-04       3    6    1         0.1113985102E-02      0.4283920325E-02
          0                 8           1             3    6     1       0.1847437443E-04       3    6    1         0.4882390836E-03      0.1874645495E-02
          0                 9           1             3    6     1       0.8125061333E-05       3    6    1         0.2147832477E-03      0.8360660432E-03

    ------------------------------------------------
       NWT REQUIRED            9 OUTER ITERATIONS 
       AND A TOTAL OF         15 INNER ITERATIONS.
    ------------------------------------------------

 NO OUTPUT CONTROL FOR STRESS PERIOD   22   TIME STEP    1
 
 SOLVING FOR HEAD 
                                                   Max.-Head-Change                         Max.-Flux-Residual
  Residual-Control   Outer-Iter.   Inner-Iter.     Column Row Layer    Maximum-Head-Change  Column Row Layer    Maximum-Flux-Residual          L2-NORM 
          0                 1           2             4    6     1      -0.2220612474E-01       4    6    1        -0.1221522917E+01      0.3179335394E+01
          0                 2           2             4    6     1      -0.4050073866E-01       4    6    1        -0.2214104287E+01      0.2238116699E+01
          0                 3           2             4    6     1       0.9847608235E-02       4    6    1         0.5430910897E+00      0.5535657537E+00
          0                 4           2             4    6     1       0.3565382826E-01       4    6    1         0.1965695564E+01      0.1969326398E+01
          0                 5           2             4    6     1      -0.3172695775E-02       4    6    1        -0.1769477485E+00      0.1790205819E+00
          0                 6           2             4    6     1       0.2534369047E-03       4    6    1         0.1417620781E-01      0.1704908000E-01
          0                 7           1             3    6     1       0.4025056079E-04       3    6    1         0.1068125997E-02      0.4305877019E-02
          0                 8           1             3    6     1       0.1770577019E-04       3    6    1         0.4677017959E-03      0.1864154412E-02
          0                 9           1             3    6     1       0.7789624657E-05       3    6    1         0.2058669031E-03      0.8313746755E-03

    ------------------------------------------------
       NWT REQUIRED            9 OUTER ITERATIONS 
       AND A TOTAL OF         15 INNER ITERATIONS.
    ------------------------------------------------

 NO OUTPUT CONTROL FOR STRESS PERIOD   22   TIME STEP    2
 
 SOLVING FOR HEAD 
                                                   Max.-Head-Change                         Max.-Flux-Residual
  Residual-Control   Outer-Iter.   Inner-Iter.     Column Row Layer    Maximum-Head-Change  Column Row Layer    Maximum-Flux-Residual          L2-NORM 
          0                 1           2             4    6     1      -0.2095202120E-01       4    6    1        -0.1152073388E+01      0.3009634182E+01
          0                 2           2             4    6     1      -0.4063065893E-01       4    6    1        -0.2221049153E+01      0.2243829823E+01
          0                 3           2             4    6     1       0.9859650526E-02       4    6    1         0.5437868932E+00      0.5541840410E+00
          0                 4           2             4    6     1       0.3565259216E-01       4    6    1         0.1965633077E+01      0.1969215863E+01
          0                 5           2             4    6     1      -0.3172642882E-02       4    6    1        -0.1769421227E+00      0.1789943499E+00
          0                 6           2             4    6     1       0.2534126794E-03       4    6    1         0.1417572255E-01      0.1702113982E-01
          0                 7           1             3    6     1       0.3881680824E-04       3    6    1         0.1030004292E-02      0.4285297828E-02
          0                 8           1             3    6     1       0.1707964095E-04       3    6    1         0.4510552237E-03      0.1855126475E-02
          0                 9           1             3    6     1       0.7516161996E-05       3    6    1         0.1985971016E-03      0.8274946187E-03

    ------------------------------------------------
       NWT REQUIRED            9 OUTER ITERATIONS 
       AND A TOTAL OF         15 INNER ITERATIONS.
    ------------------------------------------------

 NO OUTPUT CONTROL FOR STRESS PERIOD   22   TIME STEP    3
 
 SOLVING FOR HEAD 
                                                   Max.-Head-Change                         Max.-Flux-Residual
  Residual-Control   Outer-Iter.   Inner-Iter.     Column Row Layer    Maximum-Head-Change  Column Row Layer    Maximum-Flux-Residual          L2-NORM 
          0                 1           2             4    6     1      -0.1977897103E-01       4    6    1        -0.1087154173E+01      0.2853600158E+01
          0                 2           2             4    6     1      -0.4075198313E-01       4    6    1        -0.2227540995E+01      0.2249292225E+01
          0                 3           2             4    6     1       0.9870928385E-02       4    6    1         0.5444372468E+00      0.5547610301E+00
          0                 4           2             4    6     1       0.3565144199E-01       4    6    1         0.1965574664E+01      0.1969113001E+01
          0                 5           2             4    6     1      -0.3172592318E-02       4    6    1        -0.1769368643E+00      0.1789697113E+00
          0                 6           2             4    6     1       0.2533904241E-03       4    6    1         0.1417526981E-01      0.1699431321E-01
          0                 7           1             3    6     1       0.3750805793E-04       4    6    1        -0.9956388603E-03      0.4265450781E-02
          0                 8           1             3    6     1       0.1650783734E-04       3   13    1        -0.7429236448E-03      0.1990379344E-02
          0                 9           1             3   13     1       0.1283130171E-04       3   13    1         0.7793059531E-03      0.1134265370E-02
          0                10           1             3    6     1       0.3198880226E-05       3    6    1         0.8449042832E-04      0.3693328334E-03

    ------------------------------------------------
       NWT REQUIRED           10 OUTER ITERATIONS 
       AND A TOTAL OF         16 INNER ITERATIONS.
    ------------------------------------------------

 NO OUTPUT CONTROL FOR STRESS PERIOD   22   TIME STEP    4
 
 SOLVING FOR HEAD 
                                                   Max.-Head-Change                         Max.-Flux-Residual
  Residual-Control   Outer-Iter.   Inner-Iter.     Column Row Layer    Maximum-Head-Change  Column Row Layer    Maximum-Flux-Residual          L2-NORM 
          0                 1           2             4    6     1      -0.1868065108E-01       4    6    1        -0.1026408571E+01      0.2710030208E+01
          0                 2           2             4    6     1      -0.4086539741E-01       4    6    1        -0.2233615484E+01      0.2254506285E+01
          0                 3           2             4    6     1       0.9881500431E-02       4    6    1         0.5450457340E+00      0.5553013349E+00
          0                 4           2             4    6     1       0.3565037062E-01       4    6    1         0.1965520004E+01      0.1969017230E+01
          0                 5           2             4    6     1      -0.3172543970E-02       4    6    1        -0.1769319445E+00      0.1789528439E+00
          0                 6           2             4    6     1       0.2533699600E-03       4    6    1         0.1417484694E-01      0.1696973089E-01
          0                 7           1             3    6     1       0.3631280527E-04       4    6    1        -0.9956289521E-03      0.4246568770E-02
          0                 8           1             3    6     1       0.1598536937E-04       3    6    1         0.4219787720E-03      0.1838126032E-02
          0                 9           1             3    6     1       0.7037907663E-05       3    6    1         0.1858902043E-03      0.8201898892E-03

    ------------------------------------------------
       NWT REQUIRED            9 OUTER ITERATIONS 
       AND A TOTAL OF         15 INNER ITERATIONS.
    ------------------------------------------------

 NO OUTPUT CONTROL FOR STRESS PERIOD   22   TIME STEP    5
 
 SOLVING FOR HEAD 
                                                   Max.-Head-Change                         Max.-Flux-Residual
  Residual-Control   Outer-Iter.   Inner-Iter.     Column Row Layer    Maximum-Head-Change  Column Row Layer    Maximum-Flux-Residual          L2-NORM 
          0                 1           2             4    6     1      -0.1765160276E-01       4    6    1        -0.9695293877E+00      0.2577822300E+01
          0                 2           2             4    6     1      -0.4097149019E-01       4    6    1        -0.2239303337E+01      0.2259473424E+01
          0                 3           2             4    6     1       0.9891417610E-02       4    6    1         0.5456154397E+00      0.5558088166E+00
          0                 4           2             4    6     1       0.3564937198E-01       4    6    1         0.1965468821E+01      0.1968927963E+01
          0                 5           2             4    6     1      -0.3172497717E-02       4    6    1        -0.1769273383E+00      0.1789312599E+00
          0                 6           2             4    6     1       0.2533511412E-03       4    6    1         0.1417445171E-01      0.1694569541E-01
          0                 7           1             3    6     1       0.3522159355E-04       4    6    1        -0.9956192689E-03      0.4228655112E-02
          0                 8           1             3    6     1       0.1550812549E-04       3    6    1         0.4093057771E-03      0.1830227706E-02
          0                 9           1             3    6     1       0.6829163485E-05       3    6    1         0.1803475415E-03      0.8167834331E-03

    ------------------------------------------------
       NWT REQUIRED            9 OUTER ITERATIONS 
       AND A TOTAL OF         15 INNER ITERATIONS.
    ------------------------------------------------

 NO OUTPUT CONTROL FOR STRESS PERIOD   22   TIME STEP    6
 
 SOLVING FOR HEAD 
                                                   Max.-Head-Change                         Max.-Flux-Residual
  Residual-Control   Outer-Iter.   Inner-Iter.     Column Row Layer    Maximum-Head-Change  Column Row Layer    Maximum-Flux-Residual          L2-NORM 
          0                 1           2             4    6     1      -0.1668652280E-01       4    6    1        -0.9162185968E+00      0.2456017355E+01
          0                 2           2             4    6     1      -0.4107083100E-01       4    6    1        -0.2244634357E+01      0.2264199958E+01
          0                 3           2             4    6     1       0.9900729744E-02       4    6    1         0.5461493561E+00      0.5562869660E+00
          0                 4           2             4    6     1       0.3564844040E-01       4    6    1         0.1965420848E+01      0.1968844926E+01
          0                 5           2             4    6     1      -0.3172453372E-02       4    6    1        -0.1769230214E+00      0.1789115851E+00
          0                 6           2             4    6     1       0.2533338563E-03       4    6    1         0.1417408204E-01      0.1692391459E-01
          0                 7           1             3    6     1       0.3422834182E-04       4    6    1        -0.9956097344E-03      0.4212290364E-02
          0                 8           1             3    6     1       0.1507349052E-04       3    6    1         0.3977693057E-03      0.1823009555E-02
          0                 9           1             3    6     1       0.6638954037E-05       3    6    1         0.1752992281E-03      0.8136673085E-03

    ------------------------------------------------
       NWT REQUIRED            9 OUTER ITERATIONS 
       AND A TOTAL OF         15 INNER ITERATIONS.
    ------------------------------------------------

 NO OUTPUT CONTROL FOR STRESS PERIOD   22   TIME STEP    7
 
 SOLVING FOR HEAD 
                                                   Max.-Head-Change                         Max.-Flux-Residual
  Residual-Control   Outer-Iter.   Inner-Iter.     Column Row Layer    Maximum-Head-Change  Column Row Layer    Maximum-Flux-Residual          L2-NORM 
          0                 1           2             4    6     1      -0.1578083751E-01       4    6    1        -0.8662193042E+00      0.2343715023E+01
          0                 2           2             4    6     1      -0.4116391014E-01       4    6    1        -0.2249634234E+01      0.2268688092E+01
          0                 3           2             4    6     1       0.9909479915E-02       4    6    1         0.5466500626E+00      0.5567332084E+00
          0                 4           2             4    6     1       0.3564757096E-01       4    6    1         0.1965375854E+01      0.1968767324E+01
          0                 5           2             4    6     1      -0.3172410763E-02       4    6    1        -0.1769189728E+00      0.1788929221E+00
          0                 6           2             4    6     1       0.2533180133E-03       4    6    1         0.1417373610E-01      0.1690276765E-01
          0                 7           1             3    6     1       0.3332804386E-04       4    6    1        -0.9956003262E-03      0.4196378144E-02
          0                 8           1             3    6     1       0.1467931101E-04       3    6    1         0.3873113719E-03      0.1815977595E-02
          0                 9           1             8    2     1       0.6595906425E-05       8    2    1         0.1713245016E-03      0.8106282383E-03

    ------------------------------------------------
       NWT REQUIRED            9 OUTER ITERATIONS 
       AND A TOTAL OF         15 INNER ITERATIONS.
    ------------------------------------------------

 NO OUTPUT CONTROL FOR STRESS PERIOD   22   TIME STEP    8
 
 SOLVING FOR HEAD 
                                                   Max.-Head-Change                         Max.-Flux-Residual
  Residual-Control   Outer-Iter.   Inner-Iter.     Column Row Layer    Maximum-Head-Change  Column Row Layer    Maximum-Flux-Residual          L2-NORM 
          0                 1           2             4    6     1      -0.1493010297E-01       4    6    1        -0.8192812644E+00      0.2240103977E+01
          0                 2           2             4    6     1      -0.4125120896E-01       4    6    1        -0.2254327989E+01      0.2272949436E+01
          0                 3           2             4    6     1       0.9917708736E-02       4    6    1         0.5471200718E+00      0.5571530765E+00
          0                 4           2             4    6     1       0.3564675838E-01       4    6    1         0.1965333613E+01      0.1968694814E+01
          0                 5           2             4    6     1      -0.3172369961E-02       4    6    1        -0.1769151725E+00      0.1788756453E+00
          0                 6           2             4    6     1       0.2533034205E-03       4    6    1         0.1417341195E-01      0.1688299892E-01
          0                 7           1             8    2     1       0.3264670636E-04       4    6    1        -0.9955911326E-03      0.4181369921E-02
          0                 8           1             8    2     1       0.1467030176E-04       8    2    1         0.3810515028E-03      0.1809331445E-02
          0                 9           1             8    2     1       0.6592320333E-05       8    2    1         0.1712313513E-03      0.8077522027E-03

    ------------------------------------------------
       NWT REQUIRED            9 OUTER ITERATIONS 
       AND A TOTAL OF         15 INNER ITERATIONS.
    ------------------------------------------------

 NO OUTPUT CONTROL FOR STRESS PERIOD   22   TIME STEP    9
 
 SOLVING FOR HEAD 
                                                   Max.-Head-Change                         Max.-Flux-Residual
  Residual-Control   Outer-Iter.   Inner-Iter.     Column Row Layer    Maximum-Head-Change  Column Row Layer    Maximum-Flux-Residual          L2-NORM 
          0                 1           2             1   13     1       0.1427279898E-01       1   13    1         0.7764774987E+00      0.2144460338E+01
          0                 2           2             4    6     1      -0.4133313388E-01       4    6    1        -0.2258736943E+01      0.2276987260E+01
          0                 3           2             4    6     1       0.9925452288E-02       4    6    1         0.5475615246E+00      0.5575448451E+00
          0                 4           2             4    6     1       0.3564599876E-01       4    6    1         0.1965293935E+01      0.1968626635E+01
          0                 5           2             4    6     1      -0.3172330742E-02       4    6    1        -0.1769116029E+00      0.1788590118E+00
          0                 6           2             4    6     1       0.2532900367E-03       4    6    1         0.1417310817E-01      0.1686364137E-01
          0                 7           1             8    2     1       0.3262900075E-04       4    6    1        -0.9955820899E-03      0.4166696066E-02
          0                 8           1             8    2     1       0.1466234623E-04       8    2    1         0.3808448497E-03      0.1802834671E-02
          0                 9           1             8    2     1       0.6588745746E-05       8    2    1         0.1711384973E-03      0.8049410945E-03

    ------------------------------------------------
       NWT REQUIRED            9 OUTER ITERATIONS 
       AND A TOTAL OF         15 INNER ITERATIONS.
    ------------------------------------------------

 NO OUTPUT CONTROL FOR STRESS PERIOD   22   TIME STEP   10
 
 SOLVING FOR HEAD 
                                                   Max.-Head-Change                         Max.-Flux-Residual
  Residual-Control   Outer-Iter.   Inner-Iter.     Column Row Layer    Maximum-Head-Change  Column Row Layer    Maximum-Flux-Residual          L2-NORM 
          0                 1           2             1   13     1       0.1365638231E-01       1   13    1         0.7430590787E+00      0.2055965035E+01
          0                 2           2             4    6     1      -0.4141008459E-01       4    6    1        -0.2262882121E+01      0.2280805129E+01
          0                 3           2             4    6     1       0.9932745640E-02       4    6    1         0.5479765302E+00      0.5579074404E+00
          0                 4           2             4    6     1       0.3564528791E-01       4    6    1         0.1965256629E+01      0.1968563158E+01
          0                 5           2             4    6     1      -0.3172293089E-02       4    6    1        -0.1769082471E+00      0.1788432177E+00
          0                 6           2             4    6     1       0.2532777307E-03       4    6    1         0.1417282317E-01      0.1684455397E-01
          0                 7           1             8    2     1       0.3261134341E-04       4    6    1        -0.9955732564E-03      0.4152126059E-02
          0                 8           1             8    2     1       0.1465441221E-04       8    2    1         0.3806387516E-03      0.1796385429E-02
          0                 9           1             8    2     1       0.6585180663E-05       8    2    1         0.1710458932E-03      0.8021521731E-03

    ------------------------------------------------
       NWT REQUIRED            9 OUTER ITERATIONS 
       AND A TOTAL OF         15 INNER ITERATIONS.
    ------------------------------------------------

 NO OUTPUT CONTROL FOR STRESS PERIOD   22   TIME STEP   11
 
 SOLVING FOR HEAD 
                                                   Max.-Head-Change                         Max.-Flux-Residual
  Residual-Control   Outer-Iter.   Inner-Iter.     Column Row Layer    Maximum-Head-Change  Column Row Layer    Maximum-Flux-Residual          L2-NORM 
          0                 1           2             1   13     1       0.1306344822E-01       1   13    1         0.7109039261E+00      0.1974073337E+01
          0                 2           2             4    6     1      -0.4148240494E-01       4    6    1        -0.2266781385E+01      0.2284425148E+01
          0                 3           2             4    6     1       0.9939618077E-02       4    6    1         0.5483668829E+00      0.5582514534E+00
          0                 4           2             4    6     1       0.3564462223E-01       4    6    1         0.1965221535E+01      0.1968502968E+01
          0                 5           2             4    6     1      -0.3172256949E-02       4    6    1        -0.1769050906E+00      0.1788284894E+00
          0                 6           2             4    6     1       0.2532664103E-03       4    6    1         0.1417255563E-01      0.1682686300E-01
          0                 7           1             8    2     1       0.3259372408E-04       4    6    1        -0.9955645799E-03      0.4138609088E-02
          0                 8           1             8    2     1       0.1464649519E-04       8    2    1         0.3804331118E-03      0.1790397492E-02
          0                 9           1             8    2     1       0.6581623083E-05       8    2    1         0.1709534842E-03      0.7995609781E-03

    ------------------------------------------------
       NWT REQUIRED            9 OUTER ITERATIONS 
       AND A TOTAL OF         15 INNER ITERATIONS.
    ------------------------------------------------

 NO OUTPUT CONTROL FOR STRESS PERIOD   22   TIME STEP   12
 
 SOLVING FOR HEAD 
                                                   Max.-Head-Change                         Max.-Flux-Residual
  Residual-Control   Outer-Iter.   Inner-Iter.     Column Row Layer    Maximum-Head-Change  Column Row Layer    Maximum-Flux-Residual          L2-NORM 
          0                 1           2             1   13     1       0.1249338145E-01       1   13    1         0.6799799498E+00      0.1898569297E+01
          0                 2           2             4    6     1      -0.4155045764E-01       4    6    1        -0.2270453984E+01      0.2287867441E+01
          0                 3           2             4    6     1       0.9946102981E-02       4    6    1         0.5487345138E+00      0.5585777224E+00
          0                 4           2             4    6     1       0.3564399843E-01       4    6    1         0.1965188481E+01      0.1968446990E+01
          0                 5           2             4    6     1      -0.3172222072E-02       4    6    1        -0.1769021176E+00      0.1788148804E+00
          0                 6           2             4    6     1       0.2532560587E-03       4    6    1         0.1417230430E-01      0.1681030911E-01
          0                 7           1             8    2     1       0.3257521812E-04       4    6    1        -0.9955560413E-03      0.4125769879E-02
          0                 8           1             8    2     1       0.1463818075E-04       8    2    1         0.3802171118E-03      0.1784641243E-02
          0                 9           1             8    2     1       0.6577887175E-05       8    2    1         0.1708564378E-03      0.7970470046E-03

    ------------------------------------------------
       NWT REQUIRED            9 OUTER ITERATIONS 
       AND A TOTAL OF         15 INNER ITERATIONS.
    ------------------------------------------------

 NO OUTPUT CONTROL FOR STRESS PERIOD   22   TIME STEP   13
 
 SOLVING FOR HEAD 
                                                   Max.-Head-Change                         Max.-Flux-Residual
  Residual-Control   Outer-Iter.   Inner-Iter.     Column Row Layer    Maximum-Head-Change  Column Row Layer    Maximum-Flux-Residual          L2-NORM 
          0                 1           2             1   13     1       0.1194548837E-01       1   13    1         0.6502543251E+00      0.1828813945E+01
          0                 2           2             4    6     1      -0.4161452747E-01       4    6    1        -0.2273914731E+01      0.2291134072E+01
          0                 3           2             4    6     1       0.9952224690E-02       4    6    1         0.5490809705E+00      0.5588862713E+00
          0                 4           2             4    6     1       0.3564341095E-01       4    6    1         0.1965157109E+01      0.1968394437E+01
          0                 5           2             4    6     1      -0.3172201297E-02       4    6    1        -0.1769008800E+00      0.1788064788E+00
          0                 6           2             4    6     1       0.2532495070E-03       4    6    1         0.1417149620E-01      0.1680332499E-01
          0                 7           1             8    2     1       0.3255769684E-04       4    6    1        -0.9958071853E-03      0.4124957604E-02
          0                 8           1             8    2     1       0.1463030701E-04       8    2    1         0.3800126083E-03      0.1785971394E-02
          0                 9           1             8    2     1       0.6574349354E-05       8    2    1         0.1707645420E-03      0.7984136249E-03

    ------------------------------------------------
       NWT REQUIRED            9 OUTER ITERATIONS 
       AND A TOTAL OF         15 INNER ITERATIONS.
    ------------------------------------------------

 NO OUTPUT CONTROL FOR STRESS PERIOD   22   TIME STEP   14
 
 SOLVING FOR HEAD 
                                                   Max.-Head-Change                         Max.-Flux-Residual
  Residual-Control   Outer-Iter.   Inner-Iter.     Column Row Layer    Maximum-Head-Change  Column Row Layer    Maximum-Flux-Residual          L2-NORM 
          0                 1           2             1   13     1       0.1141912189E-01       1   13    1         0.6216862740E+00      0.1764220569E+01
          0                 2           2             4    6     1      -0.4167487185E-01       4    6    1        -0.2277177142E+01      0.2294219280E+01
          0                 3           2             4    6     1       0.9958005552E-02       4    6    1         0.5494075517E+00      0.5591702376E+00
          0                 4           2             4    6     1       0.3564286194E-01       4    6    1         0.1965127787E+01      0.1968345108E+01
          0                 5           2             4    6     1      -0.3172169215E-02       4    6    1        -0.1768982183E+00      0.1787941031E+00
          0                 6           2             4    6     1       0.2532405820E-03       4    6    1         0.1417128295E-01      0.1678769833E-01
          0                 7           1             8    2     1       0.3254022958E-04       4    6    1        -0.9957950952E-03      0.4112741171E-02
          0                 8           1             8    2     1       0.1462245852E-04       8    2    1         0.3798087360E-03      0.1780473541E-02
          0                 9           1             8    2     1       0.6570822288E-05       8    2    1         0.1706729284E-03      0.7959965270E-03

    ------------------------------------------------
       NWT REQUIRED            9 OUTER ITERATIONS 
       AND A TOTAL OF         15 INNER ITERATIONS.
    ------------------------------------------------

 NO OUTPUT CONTROL FOR STRESS PERIOD   22   TIME STEP   15
 
 SOLVING FOR HEAD 
                                                   Max.-Head-Change                         Max.-Flux-Residual
  Residual-Control   Outer-Iter.   Inner-Iter.     Column Row Layer    Maximum-Head-Change  Column Row Layer    Maximum-Flux-Residual          L2-NORM 
          0                 1           2             5   13     1       0.1091886570E-01       1   13    1         0.5942481828E+00      0.1704166853E+01
          0                 2           2             4    6     1      -0.4173178055E-01       4    6    1        -0.2280256643E+01      0.2297140742E+01
          0                 3           2             4    6     1       0.9963472211E-02       4    6    1         0.5497157941E+00      0.5594372023E+00
          0                 4           2             4    6     1       0.3564234631E-01       4    6    1         0.1965100099E+01      0.1968298756E+01
          0                 5           2             4    6     1      -0.3172138174E-02       4    6    1        -0.1768957064E+00      0.1787824194E+00
          0                 6           2             4    6     1       0.2532324370E-03       4    6    1         0.1417108172E-01      0.1677276812E-01
          0                 7           1             8    2     1       0.3252279885E-04       4    6    1        -0.9957835614E-03      0.4101014640E-02
          0                 8           1             8    2     1       0.1461462504E-04       8    2    1         0.3796052748E-03      0.1775188290E-02
          0                 9           1             8    2     1       0.6567301975E-05       8    2    1         0.1705814953E-03      0.7936739087E-03

    ------------------------------------------------
       NWT REQUIRED            9 OUTER ITERATIONS 
       AND A TOTAL OF         15 INNER ITERATIONS.
    ------------------------------------------------

 NO OUTPUT CONTROL FOR STRESS PERIOD   22   TIME STEP   16
 
 SOLVING FOR HEAD 
                                                   Max.-Head-Change                         Max.-Flux-Residual
  Residual-Control   Outer-Iter.   Inner-Iter.     Column Row Layer    Maximum-Head-Change  Column Row Layer    Maximum-Flux-Residual          L2-NORM 
          0                 1           2             5   13     1       0.1057891046E-01       1   13    1         0.5679089742E+00      0.1648859024E+01
          0                 2           2             4    6     1      -0.4178547219E-01       4    6    1        -0.2283164542E+01      0.2299918187E+01
          0                 3           2             4    6     1       0.9968642538E-02       4    6    1         0.5500068350E+00      0.5596898415E+00
          0                 4           2             4    6     1       0.3564186145E-01       4    6    1         0.1965073949E+01      0.1968255128E+01
          0                 5           2             4    6     1      -0.3172108322E-02       4    6    1        -0.1768933352E+00      0.1787714199E+00
          0                 6           2             4    6     1       0.2532249369E-03       4    6    1         0.1417089174E-01      0.1675859993E-01
          0                 7           1             8    2     1       0.3250539612E-04       4    6    1        -0.9957725474E-03      0.4089852429E-02
          0                 8           1             8    2     1       0.1460680307E-04       8    2    1         0.3794021423E-03      0.1770140639E-02
          0                 9           1             8    2     1       0.6563786664E-05       8    2    1         0.1704902038E-03      0.7914492392E-03

    ------------------------------------------------
       NWT REQUIRED            9 OUTER ITERATIONS 
       AND A TOTAL OF         15 INNER ITERATIONS.
    ------------------------------------------------

 NO OUTPUT CONTROL FOR STRESS PERIOD   22   TIME STEP   17
 
 SOLVING FOR HEAD 
                                                   Max.-Head-Change                         Max.-Flux-Residual
  Residual-Control   Outer-Iter.   Inner-Iter.     Column Row Layer    Maximum-Head-Change  Column Row Layer    Maximum-Flux-Residual          L2-NORM 
          0                 1           2             5   13     1       0.1024874046E-01       5   13    1         0.5498206485E+00      0.1597563787E+01
          0                 2           2             4    6     1      -0.4183616776E-01       4    6    1        -0.2285912630E+01      0.2302549573E+01
          0                 3           2             4    6     1       0.9973537347E-02       4    6    1         0.5502818563E+00      0.5599258100E+00
          0                 4           2             4    6     1       0.3564140550E-01       4    6    1         0.1965049229E+01      0.1968214135E+01
          0                 5           2             4    6     1      -0.3172079438E-02       4    6    1        -0.1768910950E+00      0.1787610510E+00
          0                 6           2             4    6     1       0.2532180982E-03       4    6    1         0.1417071225E-01      0.1674500664E-01
          0                 7           1             8    2     1       0.3248711525E-04       4    6    1        -0.9957620268E-03      0.4079083707E-02
          0                 8           1             8    2     1       0.1459858967E-04       8    2    1         0.3791887770E-03      0.1765275110E-02
          0                 9           1             8    2     1       0.6560096026E-05       8    2    1         0.1703943356E-03      0.7893063852E-03

    ------------------------------------------------
       NWT REQUIRED            9 OUTER ITERATIONS 
       AND A TOTAL OF         15 INNER ITERATIONS.
    ------------------------------------------------

 NO OUTPUT CONTROL FOR STRESS PERIOD   22   TIME STEP   18
 
 SOLVING FOR HEAD 
                                                   Max.-Head-Change                         Max.-Flux-Residual
  Residual-Control   Outer-Iter.   Inner-Iter.     Column Row Layer    Maximum-Head-Change  Column Row Layer    Maximum-Flux-Residual          L2-NORM 
          0                 1           2             5   13     1       0.9928496635E-02       5   13    1         0.5326671654E+00      0.1550114357E+01
          0                 2           2             4    6     1      -0.4188404986E-01       4    6    1        -0.2288510352E+01      0.2305053778E+01
          0                 3           2             4    6     1       0.9978171704E-02       4    6    1         0.5505418077E+00      0.5601540925E+00
          0                 4           2             4    6     1       0.3564097634E-01       4    6    1         0.1965025858E+01      0.1968175628E+01
          0                 5           2             4    6     1      -0.3172051591E-02       4    6    1        -0.1768889779E+00      0.1787517059E+00
          0                 6           2             4    6     1       0.2532118351E-03       4    6    1         0.1417054264E-01      0.1673289434E-01
          0                 7           1             8    2     1       0.3246981757E-04       4    6    1        -0.9957519642E-03      0.4069361293E-02
          0                 8           1             8    2     1       0.1459081647E-04       8    2    1         0.3789868841E-03      0.1760815217E-02
          0                 9           1             8    2     1       0.6556602725E-05       8    2    1         0.1703036023E-03      0.7873227578E-03

    ------------------------------------------------
       NWT REQUIRED            9 OUTER ITERATIONS 
       AND A TOTAL OF         15 INNER ITERATIONS.
    ------------------------------------------------

 NO OUTPUT CONTROL FOR STRESS PERIOD   22   TIME STEP   19
 
 SOLVING FOR HEAD 
                                                   Max.-Head-Change                         Max.-Flux-Residual
  Residual-Control   Outer-Iter.   Inner-Iter.     Column Row Layer    Maximum-Head-Change  Column Row Layer    Maximum-Flux-Residual          L2-NORM 
          0                 1           2             5   13     1       0.9617925532E-02       5   13    1         0.5160222788E+00      0.1505917270E+01
          0                 2           2             4    6     1      -0.4192933392E-01       4    6    1        -0.2290969293E+01      0.2307414895E+01
          0                 3           2             4    6     1       0.9982566112E-02       4    6    1         0.5507878496E+00      0.5603598527E+00
          0                 4           2             4    6     1       0.3564057201E-01       4    6    1         0.1965003723E+01      0.1968139089E+01
          0                 5           2             4    6     1      -0.3172024581E-02       4    6    1        -0.1768869741E+00      0.1787422437E+00
          0                 6           2             4    6     1       0.2532061502E-03       4    6    1         0.1417038211E-01      0.1671986907E-01
          0                 7           1             8    2     1       0.3245162124E-04       4    6    1        -0.9957423292E-03      0.4059061179E-02
          0                 8           1             8    2     1       0.1458263959E-04       8    2    1         0.3787744899E-03      0.1756156151E-02
          0                 9           1             8    2     1       0.6552928344E-05       8    2    1         0.1702081658E-03      0.7852684567E-03

    ------------------------------------------------
       NWT REQUIRED            9 OUTER ITERATIONS 
       AND A TOTAL OF         15 INNER ITERATIONS.
    ------------------------------------------------

 NO OUTPUT CONTROL FOR STRESS PERIOD   22   TIME STEP   20
 
 SOLVING FOR HEAD 
                                                   Max.-Head-Change                         Max.-Flux-Residual
  Residual-Control   Outer-Iter.   Inner-Iter.     Column Row Layer    Maximum-Head-Change  Column Row Layer    Maximum-Flux-Residual          L2-NORM 
          0                 1           2             5   13     1       0.9316873842E-02       5   13    1         0.4998792921E+00      0.1464544131E+01
          0                 2           2             4    6     1      -0.4197219838E-01       4    6    1        -0.2293298794E+01      0.2309644561E+01
          0                 3           2             4    6     1       0.9986735892E-02       4    6    1         0.5510209203E+00      0.5605497090E+00
          0                 4           2             4    6     1       0.3564019065E-01       4    6    1         0.1964982755E+01      0.1968104364E+01
          0                 5           2             4    6     1      -0.3171998520E-02       4    6    1        -0.1768850767E+00      0.1787328937E+00
          0                 6           2             4    6     1       0.2532009399E-03       4    6    1         0.1417023010E-01      0.1670695161E-01
          0                 7           1             8    2     1       0.3243440710E-04       4    6    1        -0.9957330678E-03      0.4048820523E-02
          0                 8           1             8    2     1       0.1457490341E-04       8    2    1         0.3785735685E-03      0.1751538757E-02
          0                 9           1             8    2     1       0.6549451300E-05       8    2    1         0.1701178614E-03      0.7832502064E-03

    ------------------------------------------------
       NWT REQUIRED            9 OUTER ITERATIONS 
       AND A TOTAL OF         15 INNER ITERATIONS.
    ------------------------------------------------

 NO OUTPUT CONTROL FOR STRESS PERIOD   22   TIME STEP   21
 
 SOLVING FOR HEAD 
                                                   Max.-Head-Change                         Max.-Flux-Residual
  Residual-Control   Outer-Iter.   Inner-Iter.     Column Row Layer    Maximum-Head-Change  Column Row Layer    Maximum-Flux-Residual          L2-NORM 
          0                 1           2             5   13     1       0.9025280078E-02       5   13    1         0.4842362023E+00      0.1426369116E+01
          0                 2           2             4    6     1      -0.4201277732E-01       4    6    1        -0.2295505940E+01      0.2311769822E+01
          0                 3           2             4    6     1       0.9990693231E-02       4    6    1         0.5512417305E+00      0.5607309038E+00
          0                 4           2             4    6     1       0.3563983106E-01       4    6    1         0.1964962888E+01      0.1968071745E+01
          0                 5           2             4    6     1      -0.3171973311E-02       4    6    1        -0.1768832799E+00      0.1787241912E+00
          0                 6           2             4    6     1       0.2531962014E-03       4    6    1         0.1417008617E-01      0.1669485550E-01
          0                 7           1             8    2     1       0.3241723948E-04       4    6    1        -0.9957242091E-03      0.4039229721E-02
          0                 8           1             8    2     1       0.1456718748E-04       8    2    1         0.3783731807E-03      0.1747209176E-02
          0                 9           1             8    2     1       0.6545984010E-05       8    2    1         0.1700278070E-03      0.7813383304E-03

    ------------------------------------------------
       NWT REQUIRED            9 OUTER ITERATIONS 
       AND A TOTAL OF         15 INNER ITERATIONS.
    ------------------------------------------------

 NO OUTPUT CONTROL FOR STRESS PERIOD   22   TIME STEP   22
 
 SOLVING FOR HEAD 
                                                   Max.-Head-Change                         Max.-Flux-Residual
  Residual-Control   Outer-Iter.   Inner-Iter.     Column Row Layer    Maximum-Head-Change  Column Row Layer    Maximum-Flux-Residual          L2-NORM 
          0                 1           2             5   13     1       0.8742829772E-02       5   13    1         0.4690777384E+00      0.1390739785E+01
          0                 2           2             4    6     1      -0.4205119551E-01       4    6    1        -0.2297597259E+01      0.2313778533E+01
          0                 3           2             4    6     1       0.9994448658E-02       4    6    1         0.5514509360E+00      0.5608995701E+00
          0                 4           2             4    6     1       0.3563949173E-01       4    6    1         0.1964944065E+01      0.1968040808E+01
          0                 5           2             4    6     1      -0.3171949021E-02       4    6    1        -0.1768815784E+00      0.1787158640E+00
          0                 6           2             4    6     1       0.2531918589E-03       4    6    1         0.1416994985E-01      0.1668311042E-01
          0                 7           1             8    2     1       0.3239917021E-04       4    6    1        -0.9957157495E-03      0.4029830930E-02
          0                 8           1             8    2     1       0.1455906813E-04       8    2    1         0.3781622811E-03      0.1742955884E-02
          0                 9           1             8    2     1       0.6542335140E-05       8    2    1         0.1699330340E-03      0.7794735245E-03

    ------------------------------------------------
       NWT REQUIRED            9 OUTER ITERATIONS 
       AND A TOTAL OF         15 INNER ITERATIONS.
    ------------------------------------------------

 NO OUTPUT CONTROL FOR STRESS PERIOD   22   TIME STEP   23
 
 SOLVING FOR HEAD 
                                                   Max.-Head-Change                         Max.-Flux-Residual
  Residual-Control   Outer-Iter.   Inner-Iter.     Column Row Layer    Maximum-Head-Change  Column Row Layer    Maximum-Flux-Residual          L2-NORM 
          0                 1           2             5   13     1       0.8469339014E-02       5   13    1         0.4543995604E+00      0.1355519506E+01
          0                 2           2             4    6     1      -0.4208764835E-01       4    6    1        -0.2299583246E+01      0.2315651831E+01
          0                 3           2             4    6     1       0.9998020796E-02       4    6    1         0.5516495880E+00      0.5610556009E+00
          0                 4           2             4    6     1       0.3563917100E-01       4    6    1         0.1964926188E+01      0.1968011503E+01
          0                 5           2             4    6     1      -0.3171925472E-02       4    6    1        -0.1768799632E+00      0.1787079676E+00
          0                 6           2             4    6     1       0.2531879177E-03       4    6    1         0.1416982045E-01      0.1667187018E-01
          0                 7           1             8    2     1       0.3238207312E-04       4    6    1        -0.9957076099E-03      0.4020737017E-02
          0                 8           1             8    2     1       0.1455138272E-04       8    2    1         0.3779627075E-03      0.1738805340E-02
          0                 9           1             8    2     1       0.6538880607E-05       8    2    1         0.1698433264E-03      0.7776315089E-03

    ------------------------------------------------
       NWT REQUIRED            9 OUTER ITERATIONS 
       AND A TOTAL OF         15 INNER ITERATIONS.
    ------------------------------------------------

 NO OUTPUT CONTROL FOR STRESS PERIOD   22   TIME STEP   24
 
 SOLVING FOR HEAD 
                                                   Max.-Head-Change                         Max.-Flux-Residual
  Residual-Control   Outer-Iter.   Inner-Iter.     Column Row Layer    Maximum-Head-Change  Column Row Layer    Maximum-Flux-Residual          L2-NORM 
          0                 1           2             5   13     1       0.8204660542E-02       5   13    1         0.4401896198E+00      0.1324519059E+01
          0                 2           2             4    6     1      -0.4212221039E-01       4    6    1        -0.2301467726E+01      0.2317474400E+01
          0                 3           2             4    6     1       0.1000141577E-01       4    6    1         0.5518380716E+00      0.5612105402E+00
          0                 4           2             4    6     1       0.3563886806E-01       4    6    1         0.1964909224E+01      0.1967984052E+01
          0                 5           2             4    6     1      -0.3171902675E-02       4    6    1        -0.1768784313E+00      0.1787008605E+00
          0                 6           2             4    6     1       0.2531843476E-03       4    6    1         0.1416969774E-01      0.1666174660E-01
          0                 7           1             8    2     1       0.3236409463E-04       4    6    1        -0.9956997965E-03      0.4012553305E-02
          0                 8           1             8    2     1       0.1454330438E-04       8    2    1         0.3777528693E-03      0.1735064932E-02
          0                 9           1             8    2     1       0.6535250745E-05       8    2    1         0.1697490378E-03      0.7759716641E-03

    ------------------------------------------------
       NWT REQUIRED            9 OUTER ITERATIONS 
       AND A TOTAL OF         15 INNER ITERATIONS.
    ------------------------------------------------

 NO OUTPUT CONTROL FOR STRESS PERIOD   22   TIME STEP   25
 
 SOLVING FOR HEAD 
                                                   Max.-Head-Change                         Max.-Flux-Residual
  Residual-Control   Outer-Iter.   Inner-Iter.     Column Row Layer    Maximum-Head-Change  Column Row Layer    Maximum-Flux-Residual          L2-NORM 
          0                 1           2             5   13     1       0.7948414688E-02       5   13    1         0.4264229820E+00      0.1296075583E+01
          0                 2           2             4    6     1      -0.4215502915E-01       4    6    1        -0.2303258632E+01      0.2319207995E+01
          0                 3           2             4    6     1       0.1000464742E-01       4    6    1         0.5520171814E+00      0.5613521637E+00
          0                 4           2             4    6     1       0.3563858149E-01       4    6    1         0.1964893104E+01      0.1967957943E+01
          0                 5           2             4    6     1      -0.3171880585E-02       4    6    1        -0.1768769764E+00      0.1786936114E+00
          0                 6           2             4    6     1       0.2531811160E-03       4    6    1         0.1416958117E-01      0.1665107775E-01
          0                 7           1             8    2     1       0.3234709584E-04       4    6    1        -0.9956922913E-03      0.4003993502E-02
          0                 8           1             8    2     1       0.1453566424E-04       8    2    1         0.3775544522E-03      0.1731187409E-02
          0                 9           1             8    2     1       0.6531816721E-05       8    2    1         0.1696598586E-03      0.7742646654E-03

    ------------------------------------------------
       NWT REQUIRED            9 OUTER ITERATIONS 
       AND A TOTAL OF         15 INNER ITERATIONS.
    ------------------------------------------------

 NO OUTPUT CONTROL FOR STRESS PERIOD   22   TIME STEP   26
 
 SOLVING FOR HEAD 
                                                   Max.-Head-Change                         Max.-Flux-Residual
  Residual-Control   Outer-Iter.   Inner-Iter.     Column Row Layer    Maximum-Head-Change  Column Row Layer    Maximum-Flux-Residual          L2-NORM 
          0                 1           2             5   13     1       0.7700578779E-02       5   13    1         0.4131045518E+00      0.1249397269E+01
          0                 2           2             4    6     1      -0.4276148398E-01       4    6    1        -0.2357928344E+01      0.2373484264E+01
          0                 3           2             4    6     1       0.9588451388E-02       4    6    1         0.5338906106E+00      0.5434792856E+00
          0                 4           2             4    6     1       0.3543915325E-01       4    6    1         0.1971809384E+01      0.1974853884E+01
          0                 5           2             4    6     1      -0.2806498325E-02       4    6    1        -0.1579646072E+00      0.1599500792E+00
          0                 6           2             4    6     1       0.1969151986E-03       4    6    1         0.1110895052E-01      0.1413988622E-01
          0                 7           1             8    2     1       0.3232917963E-04       8    2    1         0.8397287887E-03      0.3930301495E-02
          0                 8           1             8    2     1       0.1452761166E-04       8    2    1         0.3773453249E-03      0.1728383610E-02
          0                 9           1             8    2     1       0.6528197864E-05       8    2    1         0.1695658715E-03      0.7733564134E-03

    ------------------------------------------------
       NWT REQUIRED            9 OUTER ITERATIONS 
       AND A TOTAL OF         15 INNER ITERATIONS.
    ------------------------------------------------

 NO OUTPUT CONTROL FOR STRESS PERIOD   22   TIME STEP   27
 
 SOLVING FOR HEAD 
                                                   Max.-Head-Change                         Max.-Flux-Residual
  Residual-Control   Outer-Iter.   Inner-Iter.     Column Row Layer    Maximum-Head-Change  Column Row Layer    Maximum-Flux-Residual          L2-NORM 
          0                 1           2             4    6     1       0.1868884141E-01       4    6    1         0.1019879348E+01      0.1629383132E+01
          0                 2           2             8    2     1       0.1763397982E-02       4    6    1         0.9337974528E-01      0.2841110532E+00
          0                 3           2             8    2     1       0.7924138118E-03       8    2    1         0.2058235168E-01      0.9919663797E-01
          0                 4           2             8    2     1       0.3560847224E-03       8    2    1         0.9249039455E-02      0.4254304365E-01
          0                 5           2             8    2     1       0.1600126180E-03       8    2    1         0.4156213675E-02      0.1889812550E-01
          0                 6           1             8    2     1       0.7190427178E-04       8    2    1         0.1867663731E-02      0.8440991854E-02
          0                 7           1             8    2     1       0.3231132020E-04       8    2    1         0.8392649117E-03      0.3774550305E-02
          0                 8           1             8    2     1       0.1451958635E-04       8    2    1         0.3771368715E-03      0.1688601995E-02
          0                 9           1             8    2     1       0.6524591263E-05       8    2    1         0.1694721948E-03      0.7556324651E-03

    ------------------------------------------------
       NWT REQUIRED            9 OUTER ITERATIONS 
       AND A TOTAL OF         14 INNER ITERATIONS.
    ------------------------------------------------

 NO OUTPUT CONTROL FOR STRESS PERIOD   22   TIME STEP   28
 
 SOLVING FOR HEAD 
                                                   Max.-Head-Change                         Max.-Flux-Residual
  Residual-Control   Outer-Iter.   Inner-Iter.     Column Row Layer    Maximum-Head-Change  Column Row Layer    Maximum-Flux-Residual          L2-NORM 
          0                 1           2             4    6     1       0.2037485337E-01       4    6    1         0.1110999168E+01      0.1669726531E+01
          0                 2           2             4    6     1       0.3300056869E-02       4    6    1         0.1796361308E+00      0.3219223196E+00
          0                 3           2             8    2     1       0.7920001474E-03       4    6    1         0.2912621218E-01      0.1021663226E+00
          0                 4           2             8    2     1       0.3558987808E-03       8    2    1         0.9244210916E-02      0.4268865379E-01
          0                 5           2             8    2     1       0.1599290377E-03       8    2    1         0.4154043261E-02      0.1888909109E-01
          0                 6           1             8    2     1       0.7186670210E-04       8    2    1         0.1866688127E-02      0.8432977013E-02
          0                 7           1             8    2     1       0.3229443246E-04       8    2    1         0.8388263764E-03      0.3770921746E-02
          0                 8           1             8    2     1       0.1451199523E-04       8    2    1         0.3769397473E-03      0.1687049446E-02
          0                 9           1             8    2     1       0.6521178748E-05       8    2    1         0.1693835841E-03      0.7549691229E-03

    ------------------------------------------------
       NWT REQUIRED            9 OUTER ITERATIONS 
       AND A TOTAL OF         14 INNER ITERATIONS.
    ------------------------------------------------

 NO OUTPUT CONTROL FOR STRESS PERIOD   22   TIME STEP   29
 
 SOLVING FOR HEAD 
                                                   Max.-Head-Change                         Max.-Flux-Residual
  Residual-Control   Outer-Iter.   Inner-Iter.     Column Row Layer    Maximum-Head-Change  Column Row Layer    Maximum-Flux-Residual          L2-NORM 
          0                 1           2             4    6     1       0.1916727695E-01       4    6    1         0.1043959160E+01      0.1559535206E+01
          0                 2           2             4    6     1       0.3110532154E-02       4    6    1         0.1691088323E+00      0.3112533096E+00
          0                 3           2             8    2     1       0.7915641393E-03       4    6    1         0.2747453944E-01      0.1012704970E+00
          0                 4           2             8    2     1       0.3557028513E-03       8    2    1         0.9239121838E-02      0.4256075188E-01
          0                 5           2             8    2     1       0.1598409918E-03       8    2    1         0.4151756370E-02      0.1884887629E-01
          0                 6           1             8    2     1       0.7182713628E-04       8    2    1         0.1865660455E-02      0.8416229174E-02
          0                 7           1             8    2     1       0.3227665231E-04       8    2    1         0.8383645623E-03      0.3763570951E-02
          0                 8           1             8    2     1       0.1450400518E-04       8    2    1         0.3767322163E-03      0.1683788383E-02
          0                 9           1             8    2     1       0.6517588153E-05       8    2    1         0.1692903229E-03      0.7535173047E-03

    ------------------------------------------------
       NWT REQUIRED            9 OUTER ITERATIONS 
       AND A TOTAL OF         14 INNER ITERATIONS.
    ------------------------------------------------

 NO OUTPUT CONTROL FOR STRESS PERIOD   22   TIME STEP   30



 STREAM LISTING     PERIOD     22   STEP       30

 LAYER ROW COL. STREAM  RCH.  FLOW INTO     FLOW TO   FLOW OUT OF   OVRLND.     DIRECT     STREAM       STREAM     STREAM     STREAM   STREAMBED  STREAMBED
                SEG.NO.  NO.  STRM. RCH.    AQUIFER    STRM. RCH.    RUNOFF     PRECIP       ET          HEAD       DEPTH      WIDTH   CONDCTNC.   GRADIENT

   1    1    1     1     1    4.0274E+00  8.8097E-02   3.9393E+00  0.000E+00  0.000E+00  0.000E+00  1.09375E+03  6.990E-01  5.293E+00  2.382E-02  1.233E+00
   1    2    2     1     2    3.9393E+00  1.3548E-01   3.8038E+00  0.000E+00  0.000E+00  0.000E+00  1.08875E+03  6.921E-01  5.242E+00  3.670E-02  1.231E+00
   1    3    3     1     3    3.8038E+00  1.1461E-01   3.6892E+00  0.000E+00  0.000E+00  0.000E+00  1.08310E+03  6.842E-01  5.185E+00  3.111E-02  1.228E+00
   1    3    4     1     4    3.6892E+00  1.0476E-01   3.5844E+00  0.000E+00  0.000E+00  0.000E+00  1.07809E+03  6.772E-01  5.133E+00  2.849E-02  1.226E+00
   1    4    5     2     1    1.5844E+00  2.5113E-01   1.3333E+00  0.000E+00  0.000E+00  0.000E+00  1.07215E+03  2.196E-01  1.200E+01  7.800E-02  1.073E+00
   1    5    6     2     2    1.3333E+00  1.9193E-01   1.1414E+00  0.000E+00  0.000E+00  0.000E+00  1.06671E+03  1.989E-01  1.200E+01  6.000E-02  1.066E+00
   1    6    6     2     3    1.1414E+00  1.9079E-01   9.5059E-01  0.000E+00  0.000E+00  0.000E+00  1.06197E+03  1.798E-01  1.200E+01  6.000E-02  1.060E+00
   1    7    6     2     4    9.5059E-01  1.8957E-01   7.6102E-01  0.000E+00  0.000E+00  0.000E+00  1.05723E+03  1.594E-01  1.200E+01  6.000E-02  1.053E+00
   1    8    6     2     5    7.6102E-01  1.8824E-01   5.7279E-01  0.000E+00  0.000E+00  0.000E+00  1.05250E+03  1.373E-01  1.200E+01  6.000E-02  1.046E+00
   1    3    5     3     1    2.0000E+00  2.8252E-01   1.7175E+00  0.000E+00  0.000E+00  0.000E+00  1.07555E+03  1.909E+00  9.636E+00  7.227E-02  1.955E+00
   1    3    6     3     2    1.7175E+00  2.4905E-01   1.4684E+00  0.000E+00  0.000E+00  0.000E+00  1.07264E+03  1.727E+00  8.909E+00  6.682E-02  1.864E+00
   1    3    7     3     3    1.4684E+00  1.9718E-01   1.2712E+00  0.000E+00  0.000E+00  0.000E+00  1.06987E+03  1.555E+00  8.218E+00  5.547E-02  1.777E+00
   1    4    8     3     4    1.2712E+00  2.2567E-01   1.0456E+00  0.000E+00  0.000E+00  0.000E+00  1.06682E+03  1.364E+00  7.455E+00  6.709E-02  1.682E+00
   1    5    8     3     5    1.0456E+00  1.5790E-01   8.8768E-01  0.000E+00  0.000E+00  0.000E+00  1.06362E+03  1.164E+00  6.655E+00  4.991E-02  1.582E+00
   1    6    8     3     6    8.8768E-01  5.5980E-02   8.3170E-01  0.000E+00  0.000E+00  0.000E+00  1.06158E+03  1.036E+00  6.145E+00  1.844E-02  1.518E+00
   1    5   10     4     1    1.0000E+01  9.0919E-02   9.9091E+00  0.000E+00  0.000E+00  0.000E+00  1.07836E+03  6.368E-01  1.000E+01  2.500E-02  1.212E+00
   1    5    9     4     2    9.9091E+00  1.8158E-01   9.7275E+00  0.000E+00  0.000E+00  0.000E+00  1.07154E+03  6.315E-01  1.000E+01  5.000E-02  1.211E+00
   1    6    8     4     3    9.7275E+00  1.2689E-01   9.6006E+00  0.000E+00  0.000E+00  0.000E+00  1.06381E+03  6.256E-01  1.000E+01  3.500E-02  1.209E+00
   1    6    8     5     1    1.0432E+01  2.2686E-01   1.0205E+01  0.000E+00  0.000E+00  0.000E+00  1.05868E+03  6.790E-01  1.542E+01  6.166E-02  1.226E+00
   1    7    7     5     2    1.0205E+01  2.7894E-01   9.9265E+00  0.000E+00  0.000E+00  0.000E+00  1.05417E+03  6.732E-01  1.519E+01  7.594E-02  1.224E+00
   1    8    7     5     3    9.9265E+00  1.9221E-01   9.7343E+00  0.000E+00  0.000E+00  0.000E+00  1.04992E+03  6.676E-01  1.497E+01  5.241E-02  1.223E+00
   1    8    6     5     4    9.7343E+00  1.3577E-01   9.5985E+00  0.000E+00  0.000E+00  0.000E+00  1.04691E+03  6.637E-01  1.482E+01  3.706E-02  1.221E+00
   1    9    6     6     1    1.0171E+01  2.2243E-01   9.9489E+00  0.000E+00  0.000E+00  0.000E+00  1.04343E+03  7.072E-01  1.200E+01  6.000E-02  1.236E+00
   1   10    7     6     2    9.9489E+00  2.2187E-01   9.7270E+00  0.000E+00  0.000E+00  0.000E+00  1.03888E+03  6.978E-01  1.200E+01  6.000E-02  1.233E+00
   1   11    7     6     3    9.7270E+00  2.2130E-01   9.5057E+00  0.000E+00  0.000E+00  0.000E+00  1.03432E+03  6.883E-01  1.200E+01  6.000E-02  1.229E+00
   1   12    7     6     4    9.5057E+00  2.2073E-01   9.2850E+00  0.000E+00  0.000E+00  0.000E+00  1.02977E+03  6.788E-01  1.200E+01  6.000E-02  1.226E+00
   1   13    7     6     5    9.2850E+00 -9.6804E-02   9.3818E+00  0.000E+00  0.000E+00  0.000E+00  1.02659E+03  6.761E-01  1.200E+01  2.400E-01 -1.344E-01
   1   14    9     7     1    1.5000E+02  1.1743E+00   1.4883E+02  0.000E+00  0.000E+00  0.000E+00  1.03987E+03  2.288E+00  5.530E+01  5.593E-01  6.998E-01
   1   13    8     7     2    1.4883E+02  1.6814E+00   1.4714E+02  0.000E+00  0.000E+00  0.000E+00  1.03478E+03  2.281E+00  5.526E+01  6.148E-01  9.115E-01
   1   13    7     7     3    1.4714E+02  1.5096E+00   1.4563E+02  0.000E+00  0.000E+00  0.000E+00  1.02969E+03  2.272E+00  5.522E+01  5.585E-01  9.010E-01
   1   13    6     8     1    1.5502E+02  8.8952E-01   1.5413E+02  0.000E+00  0.000E+00  0.000E+00  1.02472E+03  2.849E+00  4.131E+01  4.209E-01  7.044E-01
   1   13    5     8     2    1.5413E+02  1.4069E-01   1.5399E+02  0.000E+00  0.000E+00  0.000E+00  1.01847E+03  2.845E+00  4.125E+01  4.204E-01  1.116E-01
   1   13    4     8     3    1.5399E+02 -2.6410E+00   1.5663E+02  0.000E+00  0.000E+00  0.000E+00  1.01223E+03  2.854E+00  4.138E+01  4.217E+00 -2.088E-01
   1   13    3     8     4    1.5663E+02 -3.6151E+00   1.6024E+02  0.000E+00  0.000E+00  0.000E+00  1.00600E+03  2.875E+00  4.169E+01  4.248E+00 -2.836E-01
   1   13    2     8     5    1.6024E+02 -2.0406E+00   1.6228E+02  0.000E+00  0.000E+00  0.000E+00  9.99769E+02  2.894E+00  4.197E+01  4.277E+00 -1.590E-01
   1   13    1     8     6    1.6228E+02 -1.2354E+00   1.6352E+02  0.000E+00  0.000E+00  0.000E+00  9.94780E+02  2.905E+00  4.213E+01  2.576E+00 -1.599E-01
   1    6    8     9     1    0.0000E+00  0.0000E+00   0.0000E+00  0.000E+00  0.000E+00  0.000E+00  1.07850E+03  0.000E+00  4.000E+00  0.000E+00  1.000E+00





UNSATURATED ZONE PACKAGE VOLUMETRIC BUDGET FOR  TIME STEP    30 STRESS PERIOD   22
  ------------------------------------------------------------------------------



     CUMULATIVE VOLUMES      L**3       RATES FOR THIS TIME STEP      L**3/T
     ------------------                 ------------------------

           IN:                                      IN:
           ---                                      ---
        INFILTRATION =    78356297.8346          INFILTRATION =       0.0000E+00

          OUT:                                     OUT:
          ----                                     ----
              UZF ET =   602753700.1707                UZF ET =           0.6250
        UZF RECHARGE =  1246710245.6610          UZF RECHARGE =          17.7313

            IN - OUT = -1771107647.9971              IN - OUT =         -18.3563

          STORAGE:                                 STORAGE:
          --------                                 --------
      STORAGE CHANGE = -1771081894.7527        STORAGE CHANGE =         -18.3563

 PERCENT DISCREPANCY IS DIFFERENCE BETWEEN IN-OUT MINUS CHANGE IN STORAGE
 DIVIDED BY THE AVERAGE OF IN AND OUT TIMES 100

 PERCENT DISCREPANCY =          -0.00     PERCENT DISCREPANCY =           0.00






1
  VOLUMETRIC BUDGET FOR ENTIRE MODEL AT END OF TIME STEP   30, STRESS PERIOD  22
  ------------------------------------------------------------------------------

     CUMULATIVE VOLUMES      L**3       RATES FOR THIS TIME STEP      L**3/T
     ------------------                 ------------------------

           IN:                                      IN:
           ---                                      ---
             STORAGE     =    78717232.0000               STORAGE     =           0.7915
       CONSTANT HEAD     =           0.0000         CONSTANT HEAD     =           0.0000
               WELLS     =           0.0000                 WELLS     =           0.0000
     HEAD DEP BOUNDS     =    15205752.0000       HEAD DEP BOUNDS     =           0.2748
      STREAM LEAKAGE     =   614541824.0000        STREAM LEAKAGE     =          10.1379
        UZF RECHARGE     =  1246710912.0000          UZF RECHARGE     =          17.7313
               GW ET     =           0.0000                 GW ET     =           0.0000
     SURFACE LEAKAGE     =           0.0000       SURFACE LEAKAGE     =           0.0000
    SUPPLEMENTARY WELLS  =           0.0000      SUPPLEMENTARY WELLS  =           0.0000

                TOTAL IN =  1955175680.0000                  TOTAL IN =          28.9355

          OUT:                                     OUT:
          ----                                     ----
             STORAGE     =  1169814272.0000               STORAGE     =          14.6545
       CONSTANT HEAD     =           0.0000         CONSTANT HEAD     =           0.0000
               WELLS     =           0.0000                 WELLS     =           0.0000
     HEAD DEP BOUNDS     =    15857878.0000       HEAD DEP BOUNDS     =           0.2759
      STREAM LEAKAGE     =   584213632.0000        STREAM LEAKAGE     =           9.6290
        UZF RECHARGE     =           0.0000          UZF RECHARGE     =           0.0000
               GW ET     =   181944704.0000                 GW ET     =           4.3740
     SURFACE LEAKAGE     =           0.0000       SURFACE LEAKAGE     =           0.0000
    SUPPLEMENTARY WELLS  =     3166757.2500      SUPPLEMENTARY WELLS  =           0.0000

               TOTAL OUT =  1954997248.0000                 TOTAL OUT =          28.9334

                IN - OUT =      178432.0000                  IN - OUT =       2.0638E-03

     PERCENT DISCREPANCY =           0.01         PERCENT DISCREPANCY =           0.01






         TIME SUMMARY AT END OF TIME STEP   30 IN STRESS PERIOD   22
                    SECONDS     MINUTES      HOURS       DAYS        YEARS
                    -----------------------------------------------------------
   TIME STEP LENGTH  87600.      1460.0      24.333      1.0139     2.77588E-03
 STRESS PERIOD TIME 2.62800E+06  43800.      730.00      30.417     8.32763E-02
         TOTAL TIME 5.52744E+07 9.21240E+05  15354.      639.75      1.7515    
1
1
                            STRESS PERIOD NO.   23, LENGTH =   2628000.    
                            -----------------------------------------------

                              NUMBER OF TIME STEPS =    30

                               MULTIPLIER FOR DELT =     1.000

                            INITIAL TIME STEP SIZE =   87600.00    

 WELL NO.  LAYER   ROW   COL   STRESS RATE         
 --------------------------------------------------
      1      1      6      4       0.000    
      2      1      6      7       0.000    
      3      1      7      4       0.000    
      4      1      7      5       0.000    
      5      1      8      4       0.000    
      6      1      8      5       0.000    
      7      1      9      4       0.000    
      8      1      9      5       0.000    
      9      1     10      4       0.000    
     10      1     10      5       0.000    

     10 WELLS

 REUSING NON-PARAMETER GHB CELLS FROM LAST STRESS PERIOD

      2 GHB CELLS

 REUSING STREAM SEGMENT DATA FROM LAST STRESS PERIOD



            AREAL INFILTRATION RATE
 READING ON UNIT   19 WITH FORMAT: (10F4.0)            

            1           2           3           4           5           6           7           8           9          10
 ........................................................................................................................
   1    0.000       0.000       0.000       0.000       0.000       0.000       0.000       0.000       0.000       0.000    
   2    0.000       0.000       0.000       0.000       0.000       0.000       0.000       0.000       0.000       0.000    
   3    0.000       0.000       0.000       0.000       0.000       0.000       0.000       0.000       0.000       0.000    
   4    0.000       0.000       0.000       0.000       0.000       0.000       0.000       0.000       0.000       0.000    
   5    0.000       0.000       0.000       0.000       0.000       0.000       0.000       0.000       0.000       0.000    
   6    0.000       0.000       0.000       0.000       0.000       0.000       0.000       0.000       0.000       0.000    
   7    0.000       0.000       0.000       0.000       0.000       0.000       0.000       0.000       0.000       0.000    
   8    0.000       0.000       0.000       0.000       0.000       0.000       0.000       0.000       0.000       0.000    
   9    0.000       0.000       0.000       0.000       0.000       0.000       0.000       0.000       0.000       0.000    
  10    0.000       0.000       0.000       0.000       0.000       0.000       0.000       0.000       0.000       0.000    
  11    0.000       0.000       0.000       0.000       0.000       0.000       0.000       0.000       0.000       0.000    
  12    0.000       0.000       0.000       0.000       0.000       0.000       0.000       0.000       0.000       0.000    
  13    0.000       0.000       0.000       0.000       0.000       0.000       0.000       0.000       0.000       0.000    
  14    0.000       0.000       0.000       0.000       0.000       0.000       0.000       0.000       0.000       0.000    
  15    0.000       0.000       0.000       0.000       0.000       0.000       0.000       0.000       0.000       0.000    

                  ET RATE =  1.000000E-10

 USING ET EXTINCTION DEPTH FROM PREVIOUS STRESS PERIOD. CURRENT PERIOD IS:      23

 USING EXTINCTION WATER CONTENT FROM PREVIOUS STRESS PERIOD. CURRENT PERIOD IS:      23

 PROCESSING AGO STRESS PERIOD DATA

 READING AGO STRESS PERIOD DATA

 READING IRRIGATION STREAM

 READING IRRIGATION WELL

 READING SUPPLEMENTAL WEL

 END PROCESSING AGO STRESS PERIOD DATA OPTIONS
 
 SOLVING FOR HEAD 
                                                   Max.-Head-Change                         Max.-Flux-Residual
  Residual-Control   Outer-Iter.   Inner-Iter.     Column Row Layer    Maximum-Head-Change  Column Row Layer    Maximum-Flux-Residual          L2-NORM 
          0                 1           2             6   13     1       0.1849995881E-01       5   13    1         0.9877025224E+00      0.2629766713E+01
          0                 2           2             4    6     1       0.2936369017E-02       4    6    1         0.1594408749E+00      0.3714199954E+00
          0                 3           2             8    2     1       0.7911288543E-03       4    6    1         0.2595613293E-01      0.1023347970E+00
          0                 4           2             8    2     1       0.3555071399E-03       8    2    1         0.9234040796E-02      0.4245013892E-01
          0                 5           2             8    2     1       0.1597529830E-03       8    2    1         0.4149471792E-02      0.1879942181E-01
          0                 6           1             8    2     1       0.7178755246E-04       8    2    1         0.1864633076E-02      0.8395005818E-02
          0                 7           1             8    2     1       0.3225884566E-04       8    2    1         0.8379024700E-03      0.3754224323E-02
          0                 8           1             8    2     1       0.1449599312E-04       8    2    1         0.3765243356E-03      0.1679627696E-02
          0                 9           1             8    2     1       0.6513982302E-05       8    2    1         0.1691967840E-03      0.7516532844E-03

    ------------------------------------------------
       NWT REQUIRED            9 OUTER ITERATIONS 
       AND A TOTAL OF         14 INNER ITERATIONS.
    ------------------------------------------------

 NO OUTPUT CONTROL FOR STRESS PERIOD   23   TIME STEP    1
 
 SOLVING FOR HEAD 
                                                   Max.-Head-Change                         Max.-Flux-Residual
  Residual-Control   Outer-Iter.   Inner-Iter.     Column Row Layer    Maximum-Head-Change  Column Row Layer    Maximum-Flux-Residual          L2-NORM 
          0                 1           2             6   13     1       0.1805919010E-01       6   13    1         0.9614476054E+00      0.2524033200E+01
          0                 2           2             4    6     1       0.2776276698E-02       4    6    1         0.1505595799E+00      0.3619217265E+00
          0                 3           2             8    2     1       0.7907177338E-03       4    6    1         0.2455984216E-01      0.1016630192E+00
          0                 4           2             8    2     1       0.3553222493E-03       8    2    1         0.9229241595E-02      0.4234044552E-01
          0                 5           2             8    2     1       0.1596698236E-03       8    2    1         0.4147313435E-02      0.1876143246E-01
          0                 6           1             8    2     1       0.7175014560E-04       8    2    1         0.1863662280E-02      0.8379522860E-02
          0                 7           1             8    2     1       0.3224201643E-04       8    2    1         0.8374657633E-03      0.3747712499E-02
          0                 8           1             8    2     1       0.1448842151E-04       8    2    1         0.3763278728E-03      0.1676856632E-02
          0                 9           1             8    2     1       0.6510575290E-05       8    2    1         0.1691083884E-03      0.7504651959E-03

    ------------------------------------------------
       NWT REQUIRED            9 OUTER ITERATIONS 
       AND A TOTAL OF         14 INNER ITERATIONS.
    ------------------------------------------------

 NO OUTPUT CONTROL FOR STRESS PERIOD   23   TIME STEP    2
 
 SOLVING FOR HEAD 
                                                   Max.-Head-Change                         Max.-Flux-Residual
  Residual-Control   Outer-Iter.   Inner-Iter.     Column Row Layer    Maximum-Head-Change  Column Row Layer    Maximum-Flux-Residual          L2-NORM 
          0                 1           2             6   13     1       0.1763009096E-01       6   13    1         0.9385432080E+00      0.2427082010E+01
          0                 2           2             4    6     1       0.2628957978E-02       4    6    1         0.1423922808E+00      0.3534705881E+00
          0                 3           2             8    2     1       0.7902837934E-03       4    6    1         0.2327442331E-01      0.1011183431E+00
          0                 4           2             8    2     1       0.3551271550E-03       8    2    1         0.9224176194E-02      0.4226396317E-01
          0                 5           2             8    2     1       0.1595821116E-03       8    2    1         0.4145036088E-02      0.1873668136E-01
          0                 6           1             8    2     1       0.7171071109E-04       8    2    1         0.1862638413E-02      0.8369678247E-02
          0                 7           1             8    2     1       0.3222428781E-04       8    2    1         0.8370054511E-03      0.3743627466E-02
          0                 8           1             8    2     1       0.1448045047E-04       8    2    1         0.3761209167E-03      0.1675133324E-02
          0                 9           1             8    2     1       0.6506991949E-05       8    2    1         0.1690153458E-03      0.7497293263E-03

    ------------------------------------------------
       NWT REQUIRED            9 OUTER ITERATIONS 
       AND A TOTAL OF         14 INNER ITERATIONS.
    ------------------------------------------------

 NO OUTPUT CONTROL FOR STRESS PERIOD   23   TIME STEP    3
 
 SOLVING FOR HEAD 
                                                   Max.-Head-Change                         Max.-Flux-Residual
  Residual-Control   Outer-Iter.   Inner-Iter.     Column Row Layer    Maximum-Head-Change  Column Row Layer    Maximum-Flux-Residual          L2-NORM 
          0                 1           2             6   13     1       0.1721229520E-01       6   13    1         0.9162440756E+00      0.2337776373E+01
          0                 2           2             4    6     1       0.2493241857E-02       4    6    1         0.1348732898E+00      0.3458463544E+00
          0                 3           2             8    2     1       0.7898507701E-03       4    6    1         0.2208973566E-01      0.1006347595E+00
          0                 4           2             8    2     1       0.3549324993E-03       8    2    1         0.9219121631E-02      0.4219472902E-01
          0                 5           2             8    2     1       0.1594946088E-03       8    2    1         0.4142763929E-02      0.1871401432E-01
          0                 6           1             8    2     1       0.7167137638E-04       8    2    1         0.1861617017E-02      0.8360621273E-02
          0                 7           1             8    2     1       0.3220660571E-04       8    2    1         0.8365463038E-03      0.3739855001E-02
          0                 8           1             8    2     1       0.1447250195E-04       8    2    1         0.3759145169E-03      0.1673535685E-02
          0                 9           1             8    2     1       0.6503418612E-05       8    2    1         0.1689225619E-03      0.7490448590E-03

    ------------------------------------------------
       NWT REQUIRED            9 OUTER ITERATIONS 
       AND A TOTAL OF         14 INNER ITERATIONS.
    ------------------------------------------------

 NO OUTPUT CONTROL FOR STRESS PERIOD   23   TIME STEP    4
 
 SOLVING FOR HEAD 
                                                   Max.-Head-Change                         Max.-Flux-Residual
  Residual-Control   Outer-Iter.   Inner-Iter.     Column Row Layer    Maximum-Head-Change  Column Row Layer    Maximum-Flux-Residual          L2-NORM 
          0                 1           2             6   13     1       0.1680565289E-01       6   13    1         0.8945422974E+00      0.2255630976E+01
          0                 2           2             4    6     1       0.2368205514E-02       4    6    1         0.1279505814E+00      0.3390190470E+00
          0                 3           2             8    2     1       0.7894184314E-03       4    6    1         0.2099781367E-01      0.1002216899E+00
          0                 4           2             8    2     1       0.3547381260E-03       8    2    1         0.9214074937E-02      0.4213630732E-01
          0                 5           2             8    2     1       0.1594072217E-03       8    2    1         0.4140495012E-02      0.1869426407E-01
          0                 6           1             8    2     1       0.7163208844E-04       8    2    1         0.1860596945E-02      0.8352486573E-02
          0                 7           1             8    2     1       0.3218894212E-04       8    2    1         0.8360876941E-03      0.3736386761E-02
          0                 8           1             8    2     1       0.1446456092E-04       8    2    1         0.3757083353E-03      0.1672040204E-02
          0                 9           1             8    2     1       0.6499848527E-05       8    2    1         0.1688298640E-03      0.7483955387E-03

    ------------------------------------------------
       NWT REQUIRED            9 OUTER ITERATIONS 
       AND A TOTAL OF         14 INNER ITERATIONS.
    ------------------------------------------------

 NO OUTPUT CONTROL FOR STRESS PERIOD   23   TIME STEP    5
 
 SOLVING FOR HEAD 
                                                   Max.-Head-Change                         Max.-Flux-Residual
  Residual-Control   Outer-Iter.   Inner-Iter.     Column Row Layer    Maximum-Head-Change  Column Row Layer    Maximum-Flux-Residual          L2-NORM 
          0                 1           2             6   13     1       0.1640961724E-01       6   13    1         0.8734080807E+00      0.2179876481E+01
          0                 2           2             4    6     1       0.2252803788E-02       4    6    1         0.1215655204E+00      0.3328582162E+00
          0                 3           2             8    2     1       0.7889868493E-03       8    2    1         0.2049336823E-01      0.9985811078E-01
          0                 4           2             8    2     1       0.3545440941E-03       8    2    1         0.9209037075E-02      0.4208571408E-01
          0                 5           2             8    2     1       0.1593199880E-03       8    2    1         0.4138230070E-02      0.1867731878E-01
          0                 6           1             8    2     1       0.7159286977E-04       8    2    1         0.1859578668E-02      0.8345502680E-02
          0                 7           1             8    2     1       0.3217131029E-04       8    2    1         0.8356298948E-03      0.3733390331E-02
          0                 8           1             8    2     1       0.1445663365E-04       8    2    1         0.3755025152E-03      0.1670736060E-02
          0                 9           1             8    2     1       0.6496284445E-05       8    2    1         0.1687373347E-03      0.7478223874E-03

    ------------------------------------------------
       NWT REQUIRED            9 OUTER ITERATIONS 
       AND A TOTAL OF         14 INNER ITERATIONS.
    ------------------------------------------------

 NO OUTPUT CONTROL FOR STRESS PERIOD   23   TIME STEP    6
 
 SOLVING FOR HEAD 
                                                   Max.-Head-Change                         Max.-Flux-Residual
  Residual-Control   Outer-Iter.   Inner-Iter.     Column Row Layer    Maximum-Head-Change  Column Row Layer    Maximum-Flux-Residual          L2-NORM 
          0                 1           2             6   13     1       0.1602397377E-01       6   13    1         0.8528295992E+00      0.2109852599E+01
          0                 2           2             4    6     1       0.2146301510E-02       4    6    1         0.1156768047E+00      0.3272491235E+00
          0                 3           2             8    2     1       0.7885560240E-03       8    2    1         0.2048218224E-01      0.9951498558E-01
          0                 4           2             8    2     1       0.3543504029E-03       8    2    1         0.9204008055E-02      0.4203208837E-01
          0                 5           2             8    2     1       0.1592329081E-03       8    2    1         0.4135969113E-02      0.1865877529E-01
          0                 6           1             8    2     1       0.7155371964E-04       8    2    1         0.1858562176E-02      0.8337913127E-02
          0                 7           1             8    2     1       0.3215370923E-04       8    2    1         0.8351729014E-03      0.3730173382E-02
          0                 8           1             8    2     1       0.1444872064E-04       8    2    1         0.3752970582E-03      0.1669352247E-02
          0                 9           1             8    2     1       0.6492727116E-05       8    2    1         0.1686449634E-03      0.7472211491E-03

    ------------------------------------------------
       NWT REQUIRED            9 OUTER ITERATIONS 
       AND A TOTAL OF         14 INNER ITERATIONS.
    ------------------------------------------------

 NO OUTPUT CONTROL FOR STRESS PERIOD   23   TIME STEP    7
 
 SOLVING FOR HEAD 
                                                   Max.-Head-Change                         Max.-Flux-Residual
  Residual-Control   Outer-Iter.   Inner-Iter.     Column Row Layer    Maximum-Head-Change  Column Row Layer    Maximum-Flux-Residual          L2-NORM 
          0                 1           2             6   13     1       0.1564843004E-01       6   13    1         0.8327958355E+00      0.2045087487E+01
          0                 2           2             4    6     1       0.2047863480E-02       4    6    1         0.1102376861E+00      0.3221269489E+00
          0                 3           2             8    2     1       0.7881260216E-03       8    2    1         0.2047101712E-01      0.9920663158E-01
          0                 4           2             8    2     1       0.3541570918E-03       8    2    1         0.9198988684E-02      0.4198518006E-01
          0                 5           2             8    2     1       0.1591460030E-03       8    2    1         0.4133712610E-02      0.1864247697E-01
          0                 6           1             8    2     1       0.7151465105E-04       8    2    1         0.1857547750E-02      0.8331103433E-02
          0                 7           1             8    2     1       0.3213614518E-04       8    2    1         0.8347168528E-03      0.3727226119E-02
          0                 8           1             8    2     1       0.1444082463E-04       8    2    1         0.3750920401E-03      0.1668061598E-02
          0                 9           1             8    2     1       0.6489177290E-05       8    2    1         0.1685527965E-03      0.7466517158E-03

    ------------------------------------------------
       NWT REQUIRED            9 OUTER ITERATIONS 
       AND A TOTAL OF         14 INNER ITERATIONS.
    ------------------------------------------------

 NO OUTPUT CONTROL FOR STRESS PERIOD   23   TIME STEP    8
 
 SOLVING FOR HEAD 
                                                   Max.-Head-Change                         Max.-Flux-Residual
  Residual-Control   Outer-Iter.   Inner-Iter.     Column Row Layer    Maximum-Head-Change  Column Row Layer    Maximum-Flux-Residual          L2-NORM 
          0                 1           2             6   13     1       0.1528256669E-01       6   13    1         0.8132769882E+00      0.1984349195E+01
          0                 2           2             4    6     1       0.1956826232E-02       4    6    1         0.1052108226E+00      0.3173741372E+00
          0                 3           2             8    2     1       0.7876967498E-03       8    2    1         0.2045987142E-01      0.9892193129E-01
          0                 4           2             8    2     1       0.3539641001E-03       8    2    1         0.9193977806E-02      0.4194130545E-01
          0                 5           2             8    2     1       0.1590592380E-03       8    2    1         0.4131459823E-02      0.1862719984E-01
          0                 6           1             8    2     1       0.7147564323E-04       8    2    1         0.1856534943E-02      0.8324738395E-02
          0                 7           1             8    2     1       0.3211860814E-04       8    2    1         0.8342615185E-03      0.3724475255E-02
          0                 8           1             8    2     1       0.1443294013E-04       8    2    1         0.3748873330E-03      0.1666855948E-02
          0                 9           1             8    2     1       0.6485632716E-05       8    2    1         0.1684607669E-03      0.7461186974E-03

    ------------------------------------------------
       NWT REQUIRED            9 OUTER ITERATIONS 
       AND A TOTAL OF         14 INNER ITERATIONS.
    ------------------------------------------------

 NO OUTPUT CONTROL FOR STRESS PERIOD   23   TIME STEP    9
 
 SOLVING FOR HEAD 
                                                   Max.-Head-Change                         Max.-Flux-Residual
  Residual-Control   Outer-Iter.   Inner-Iter.     Column Row Layer    Maximum-Head-Change  Column Row Layer    Maximum-Flux-Residual          L2-NORM 
          0                 1           2             6   13     1       0.1492628697E-01       6   13    1         0.7942673187E+00      0.1928530112E+01
          0                 2           2             4    6     1       0.1872540396E-02       4    6    1         0.1005598972E+00      0.3130962830E+00
          0                 3           2             8    2     1       0.7872682350E-03       8    2    1         0.2044874538E-01      0.9865813103E-01
          0                 4           2             8    2     1       0.3537714483E-03       8    2    1         0.9188975760E-02      0.4189636149E-01
          0                 5           2             8    2     1       0.1589726255E-03       8    2    1         0.4129211005E-02      0.1861102233E-01
          0                 6           1             8    2     1       0.7143670369E-04       8    2    1         0.1855523920E-02      0.8317967399E-02
          0                 7           1             8    2     1       0.3210110212E-04       8    2    1         0.8338069859E-03      0.3721548723E-02
          0                 8           1             8    2     1       0.1442506989E-04       8    2    1         0.3746829795E-03      0.1665574194E-02
          0                 9           1             8    2     1       0.6482093895E-05       8    2    1         0.1683688876E-03      0.7455524675E-03

    ------------------------------------------------
       NWT REQUIRED            9 OUTER ITERATIONS 
       AND A TOTAL OF         14 INNER ITERATIONS.
    ------------------------------------------------

 NO OUTPUT CONTROL FOR STRESS PERIOD   23   TIME STEP   10
 
 SOLVING FOR HEAD 
                                                   Max.-Head-Change                         Max.-Flux-Residual
  Residual-Control   Outer-Iter.   Inner-Iter.     Column Row Layer    Maximum-Head-Change  Column Row Layer    Maximum-Flux-Residual          L2-NORM 
          0                 1           2             6   13     1       0.1457924971E-01       6   13    1         0.7757512583E+00      0.1876684149E+01
          0                 2           2             4    6     1       0.1794459150E-02       4    6    1         0.9625436060E-01      0.3092005130E+00
          0                 3           2             8    2     1       0.7868404784E-03       8    2    1         0.2043763900E-01      0.9841192680E-01
          0                 4           2             8    2     1       0.3535791382E-03       8    2    1         0.9183982564E-02      0.4185026512E-01
          0                 5           2             8    2     1       0.1588861669E-03       8    2    1         0.4126966167E-02      0.1859386017E-01
          0                 6           1             8    2     1       0.7139783368E-04       8    2    1         0.1854514686E-02      0.8310733773E-02
          0                 7           1             8    2     1       0.3208362686E-04       8    2    1         0.8333532528E-03      0.3718418699E-02
          0                 8           1             8    2     1       0.1441721315E-04       8    2    1         0.3744789893E-03      0.1664204528E-02
          0                 9           1             8    2     1       0.6478562077E-05       8    2    1         0.1682771781E-03      0.7449495987E-03

    ------------------------------------------------
       NWT REQUIRED            9 OUTER ITERATIONS 
       AND A TOTAL OF         14 INNER ITERATIONS.
    ------------------------------------------------

 NO OUTPUT CONTROL FOR STRESS PERIOD   23   TIME STEP   11
 
 SOLVING FOR HEAD 
                                                   Max.-Head-Change                         Max.-Flux-Residual
  Residual-Control   Outer-Iter.   Inner-Iter.     Column Row Layer    Maximum-Head-Change  Column Row Layer    Maximum-Flux-Residual          L2-NORM 
          0                 1           2             6   13     1       0.1424129549E-01       6   13    1         0.7577202642E+00      0.1828750891E+01
          0                 2           2             8    2     1       0.1750050684E-02       4    6    1         0.9226435156E-01      0.3055162394E+00
          0                 3           2             8    2     1       0.7864133792E-03       8    2    1         0.2042655043E-01      0.9818601687E-01
          0                 4           2             8    2     1       0.3533871077E-03       8    2    1         0.9178996970E-02      0.4180806227E-01
          0                 5           2             8    2     1       0.1587998268E-03       8    2    1         0.4124724565E-02      0.1857811614E-01
          0                 6           1             8    2     1       0.7135901395E-04       8    2    1         0.1853506828E-02      0.8304116386E-02
          0                 7           1             8    2     1       0.3206617261E-04       8    2    1         0.8329001040E-03      0.3715563468E-02
          0                 8           1             8    2     1       0.1440936566E-04       8    2    1         0.3742752473E-03      0.1662957618E-02
          0                 9           1             8    2     1       0.6475033510E-05       8    2    1         0.1681855728E-03      0.7443994124E-03

    ------------------------------------------------
       NWT REQUIRED            9 OUTER ITERATIONS 
       AND A TOTAL OF         14 INNER ITERATIONS.
    ------------------------------------------------

 NO OUTPUT CONTROL FOR STRESS PERIOD   23   TIME STEP   12
 
 SOLVING FOR HEAD 
                                                   Max.-Head-Change                         Max.-Flux-Residual
  Residual-Control   Outer-Iter.   Inner-Iter.     Column Row Layer    Maximum-Head-Change  Column Row Layer    Maximum-Flux-Residual          L2-NORM 
          0                 1           2             6   13     1       0.1391251809E-01       6   13    1         0.7401665908E+00      0.1786010171E+01
          0                 2           2             8    2     1       0.1749102461E-02       4    6    1         0.8856505641E-01      0.3025649232E+00
          0                 3           2             8    2     1       0.7859870782E-03       8    2    1         0.2041548184E-01      0.9798994716E-01
          0                 4           2             8    2     1       0.3531954516E-03       8    2    1         0.9174020769E-02      0.4176886934E-01
          0                 5           2             8    2     1       0.1587136623E-03       8    2    1         0.4122487373E-02      0.1856312640E-01
          0                 6           1             8    2     1       0.7132027625E-04       8    2    1         0.1852501031E-02      0.8297725910E-02
          0                 7           1             8    2     1       0.3204875688E-04       8    2    1         0.8324479132E-03      0.3712778219E-02
          0                 8           1             8    2     1       0.1440153569E-04       8    2    1         0.3740719499E-03      0.1661731498E-02
          0                 9           1             8    2     1       0.6471513197E-05       8    2    1         0.1680941711E-03      0.7438560759E-03

    ------------------------------------------------
       NWT REQUIRED            9 OUTER ITERATIONS 
       AND A TOTAL OF         14 INNER ITERATIONS.
    ------------------------------------------------

 NO OUTPUT CONTROL FOR STRESS PERIOD   23   TIME STEP   13
 
 SOLVING FOR HEAD 
                                                   Max.-Head-Change                         Max.-Flux-Residual
  Residual-Control   Outer-Iter.   Inner-Iter.     Column Row Layer    Maximum-Head-Change  Column Row Layer    Maximum-Flux-Residual          L2-NORM 
          0                 1           2             6   13     1       0.1359275090E-01       6   13    1         0.7230920741E+00      0.1744709460E+01
          0                 2           2             8    2     1       0.1748155916E-02       4    6    1         0.8513173525E-01      0.2996175347E+00
          0                 3           2             8    2     1       0.7855615320E-03       8    2    1         0.2040443284E-01      0.9780343270E-01
          0                 4           2             8    2     1       0.3530041347E-03       8    2    1         0.9169053369E-02      0.4173095742E-01
          0                 5           2             8    2     1       0.1586276499E-03       8    2    1         0.4120254130E-02      0.1854849330E-01
          0                 6           1             8    2     1       0.7128160683E-04       8    2    1         0.1851497010E-02      0.8291458236E-02
          0                 7           1             8    2     1       0.3203137166E-04       8    2    1         0.8319965221E-03      0.3710035811E-02
          0                 8           1             8    2     1       0.1439371922E-04       8    2    1         0.3738690110E-03      0.1660522309E-02
          0                 9           1             8    2     1       0.6467999137E-05       8    2    1         0.1680029374E-03      0.7433166516E-03

    ------------------------------------------------
       NWT REQUIRED            9 OUTER ITERATIONS 
       AND A TOTAL OF         14 INNER ITERATIONS.
    ------------------------------------------------

 NO OUTPUT CONTROL FOR STRESS PERIOD   23   TIME STEP   14
 
 SOLVING FOR HEAD 
                                                   Max.-Head-Change                         Max.-Flux-Residual
  Residual-Control   Outer-Iter.   Inner-Iter.     Column Row Layer    Maximum-Head-Change  Column Row Layer    Maximum-Flux-Residual          L2-NORM 
          0                 1           2             6   13     1       0.1328143293E-01       6   13    1         0.7064700378E+00      0.1706191323E+01
          0                 2           2             8    2     1       0.1747211141E-02       4    6    1         0.8194184840E-01      0.2968718482E+00
          0                 3           2             8    2     1       0.7851368045E-03       8    2    1         0.2039340462E-01      0.9760610727E-01
          0                 4           2             8    2     1       0.3528131961E-03       8    2    1         0.9164095585E-02      0.4168158617E-01
          0                 5           2             8    2     1       0.1585418125E-03       8    2    1         0.4118025334E-02      0.1852764790E-01
          0                 6           1             8    2     1       0.7124301770E-04       8    2    1         0.1850495038E-02      0.8282036999E-02
          0                 7           1             8    2     1       0.3201402371E-04       8    2    1         0.8315460789E-03      0.3705735457E-02
          0                 8           1             8    2     1       0.1438592050E-04       8    2    1         0.3736665091E-03      0.1658566844E-02
          0                 9           1             8    2     1       0.6464493080E-05       8    2    1         0.1679118980E-03      0.7424799977E-03

    ------------------------------------------------
       NWT REQUIRED            9 OUTER ITERATIONS 
       AND A TOTAL OF         14 INNER ITERATIONS.
    ------------------------------------------------

 NO OUTPUT CONTROL FOR STRESS PERIOD   23   TIME STEP   15
 
 SOLVING FOR HEAD 
                                                   Max.-Head-Change                         Max.-Flux-Residual
  Residual-Control   Outer-Iter.   Inner-Iter.     Column Row Layer    Maximum-Head-Change  Column Row Layer    Maximum-Flux-Residual          L2-NORM 
          0                 1           2             6   13     1       0.1297851550E-01       6   13    1         0.6902978534E+00      0.1670237080E+01
          0                 2           2             8    2     1       0.1746268027E-02       4    6    1         0.7897714231E-01      0.2942920927E+00
          0                 3           2             8    2     1       0.7847128000E-03       8    2    1         0.2038239567E-01      0.9739208325E-01
          0                 4           2             8    2     1       0.3526225722E-03       8    2    1         0.9159146185E-02      0.4162217465E-01
          0                 5           2             8    2     1       0.1584561115E-03       8    2    1         0.4115800176E-02      0.1850304376E-01
          0                 6           1             8    2     1       0.7120448784E-04       8    2    1         0.1849494646E-02      0.8271341655E-02
          0                 7           1             8    2     1       0.3199670127E-04       8    2    1         0.8310963207E-03      0.3701041979E-02
          0                 8           1             8    2     1       0.1437813255E-04       8    2    1         0.3734643060E-03      0.1656485658E-02
          0                 9           1             8    2     1       0.6460991526E-05       8    2    1         0.1678209896E-03      0.7415043008E-03

    ------------------------------------------------
       NWT REQUIRED            9 OUTER ITERATIONS 
       AND A TOTAL OF         14 INNER ITERATIONS.
    ------------------------------------------------

 NO OUTPUT CONTROL FOR STRESS PERIOD   23   TIME STEP   16
 
 SOLVING FOR HEAD 
                                                   Max.-Head-Change                         Max.-Flux-Residual
  Residual-Control   Outer-Iter.   Inner-Iter.     Column Row Layer    Maximum-Head-Change  Column Row Layer    Maximum-Flux-Residual          L2-NORM 
          0                 1           2             6   13     1       0.1268362420E-01       6   13    1         0.6745553760E+00      0.1636317280E+01
          0                 2           2             8    2     1       0.1745274000E-02       4    6    1         0.7621644754E-01      0.2918817189E+00
          0                 3           2             8    2     1       0.7842658856E-03       8    2    1         0.2037079231E-01      0.9722081182E-01
          0                 4           2             8    2     1       0.3524216390E-03       8    2    1         0.9153929314E-02      0.4158242165E-01
          0                 5           2             8    2     1       0.1583657716E-03       8    2    1         0.4113454675E-02      0.1848689757E-01
          0                 6           1             8    2     1       0.7116387156E-04       8    2    1         0.1848440113E-02      0.8264189441E-02
          0                 7           1             8    2     1       0.3197843991E-04       8    2    1         0.8306221969E-03      0.3697834166E-02
          0                 8           1             8    2     1       0.1436992215E-04       8    2    1         0.3732511365E-03      0.1655054146E-02
          0                 9           1             8    2     1       0.6457300137E-05       8    2    1         0.1677251468E-03      0.7408488098E-03

    ------------------------------------------------
       NWT REQUIRED            9 OUTER ITERATIONS 
       AND A TOTAL OF         14 INNER ITERATIONS.
    ------------------------------------------------

 NO OUTPUT CONTROL FOR STRESS PERIOD   23   TIME STEP   17
 
 SOLVING FOR HEAD 
                                                   Max.-Head-Change                         Max.-Flux-Residual
  Residual-Control   Outer-Iter.   Inner-Iter.     Column Row Layer    Maximum-Head-Change  Column Row Layer    Maximum-Flux-Residual          L2-NORM 
          0                 1           2             6   13     1       0.1239659614E-01       6   13    1         0.6592352584E+00      0.1604057431E+01
          0                 2           2             8    2     1       0.1744334223E-02       4    6    1         0.7364508900E-01      0.2895611985E+00
          0                 3           2             8    2     1       0.7838433800E-03       8    2    1         0.2035982231E-01      0.9704698628E-01
          0                 4           2             8    2     1       0.3522316885E-03       8    2    1         0.9148997416E-02      0.4154127915E-01
          0                 5           2             8    2     1       0.1582803732E-03       8    2    1         0.4111237384E-02      0.1847048552E-01
          0                 6           1             8    2     1       0.7112547726E-04       8    2    1         0.1847443254E-02      0.8257066023E-02
          0                 7           1             8    2     1       0.3196117850E-04       8    2    1         0.8301740282E-03      0.3694683417E-02
          0                 8           1             8    2     1       0.1436216171E-04       8    2    1         0.3730496457E-03      0.1653639578E-02
          0                 9           1             8    2     1       0.6453811338E-05       8    2    1         0.1676345592E-03      0.7402252864E-03

    ------------------------------------------------
       NWT REQUIRED            9 OUTER ITERATIONS 
       AND A TOTAL OF         14 INNER ITERATIONS.
    ------------------------------------------------

 NO OUTPUT CONTROL FOR STRESS PERIOD   23   TIME STEP   18
 
 SOLVING FOR HEAD 
                                                   Max.-Head-Change                         Max.-Flux-Residual
  Residual-Control   Outer-Iter.   Inner-Iter.     Column Row Layer    Maximum-Head-Change  Column Row Layer    Maximum-Flux-Residual          L2-NORM 
          0                 1           2             6   13     1       0.1211707800E-01       6   13    1         0.6443216809E+00      0.1574627276E+01
          0                 2           2             8    2     1       0.1743395962E-02       4    6    1         0.7124751397E-01      0.2875833945E+00
          0                 3           2             8    2     1       0.7834215197E-03       8    2    1         0.2034886983E-01      0.9691399845E-01
          0                 4           2             8    2     1       0.3520420115E-03       8    2    1         0.9144072971E-02      0.4150930189E-01
          0                 5           2             8    2     1       0.1581950906E-03       8    2    1         0.4109023254E-02      0.1845718893E-01
          0                 6           1             8    2     1       0.7108713199E-04       8    2    1         0.1846447729E-02      0.8251126871E-02
          0                 7           1             8    2     1       0.3194393734E-04       8    2    1         0.8297264150E-03      0.3692003376E-02
          0                 8           1             8    2     1       0.1435440976E-04       8    2    1         0.3728483900E-03      0.1652426632E-02
          0                 9           1             8    2     1       0.6450325540E-05       8    2    1         0.1675440674E-03      0.7396774500E-03

    ------------------------------------------------
       NWT REQUIRED            9 OUTER ITERATIONS 
       AND A TOTAL OF         14 INNER ITERATIONS.
    ------------------------------------------------

 NO OUTPUT CONTROL FOR STRESS PERIOD   23   TIME STEP   19
 
 SOLVING FOR HEAD 
                                                   Max.-Head-Change                         Max.-Flux-Residual
  Residual-Control   Outer-Iter.   Inner-Iter.     Column Row Layer    Maximum-Head-Change  Column Row Layer    Maximum-Flux-Residual          L2-NORM 
          0                 1           2             6   13     1       0.1184479120E-01       6   13    1         0.6297886572E+00      0.1546825971E+01
          0                 2           2             8    2     1       0.1742459365E-02       4    6    1         0.6901202305E-01      0.2856750436E+00
          0                 3           2             8    2     1       0.7830004420E-03       8    2    1         0.2033793694E-01      0.9677530223E-01
          0                 4           2             8    2     1       0.3518527014E-03       8    2    1         0.9139157724E-02      0.4147562707E-01
          0                 5           2             8    2     1       0.1581099791E-03       8    2    1         0.4106813430E-02      0.1844346597E-01
          0                 6           1             8    2     1       0.7104886700E-04       8    2    1         0.1845454223E-02      0.8245077039E-02
          0                 7           1             8    2     1       0.3192673371E-04       8    2    1         0.8292797447E-03      0.3689296019E-02
          0                 8           1             8    2     1       0.1434667508E-04       8    2    1         0.3726475702E-03      0.1651209010E-02
          0                 9           1             8    2     1       0.6446848247E-05       8    2    1         0.1674537815E-03      0.7391281725E-03

    ------------------------------------------------
       NWT REQUIRED            9 OUTER ITERATIONS 
       AND A TOTAL OF         14 INNER ITERATIONS.
    ------------------------------------------------

 NO OUTPUT CONTROL FOR STRESS PERIOD   23   TIME STEP   20
 
 SOLVING FOR HEAD 
                                                   Max.-Head-Change                         Max.-Flux-Residual
  Residual-Control   Outer-Iter.   Inner-Iter.     Column Row Layer    Maximum-Head-Change  Column Row Layer    Maximum-Flux-Residual          L2-NORM 
          0                 1           2             6   13     1       0.1157981135E-01       6   13    1         0.6156464926E+00      0.1520528187E+01
          0                 2           2             8    2     1       0.1741472050E-02       4    6    1         0.6692301579E-01      0.2838834606E+00
          0                 3           2             8    2     1       0.7825565984E-03       8    2    1         0.2032641219E-01      0.9663942537E-01
          0                 4           2             8    2     1       0.3516531736E-03       8    2    1         0.9133976829E-02      0.4144025737E-01
          0                 5           2             8    2     1       0.1580202817E-03       8    2    1         0.4104484373E-02      0.1842875540E-01
          0                 6           1             8    2     1       0.7100854360E-04       8    2    1         0.1844407196E-02      0.8238556539E-02
          0                 7           1             8    2     1       0.3190860616E-04       8    2    1         0.8288090519E-03      0.3686371484E-02
          0                 8           1             8    2     1       0.1433852571E-04       8    2    1         0.3724359683E-03      0.1649892443E-02
          0                 9           1             8    2     1       0.6443184620E-05       8    2    1         0.1673586539E-03      0.7385381891E-03

    ------------------------------------------------
       NWT REQUIRED            9 OUTER ITERATIONS 
       AND A TOTAL OF         14 INNER ITERATIONS.
    ------------------------------------------------

 NO OUTPUT CONTROL FOR STRESS PERIOD   23   TIME STEP   21
 
 SOLVING FOR HEAD 
                                                   Max.-Head-Change                         Max.-Flux-Residual
  Residual-Control   Outer-Iter.   Inner-Iter.     Column Row Layer    Maximum-Head-Change  Column Row Layer    Maximum-Flux-Residual          L2-NORM 
          0                 1           2             6   13     1       0.1132170410E-01       6   13    1         0.6018721062E+00      0.1496109669E+01
          0                 2           2             8    2     1       0.1740538948E-02       4    6    1         0.6497117358E-01      0.2822398254E+00
          0                 3           2             8    2     1       0.7821370884E-03       8    2    1         0.2031552008E-01      0.9650422548E-01
          0                 4           2             8    2     1       0.3514645664E-03       8    2    1         0.9129079875E-02      0.4140205694E-01
          0                 5           2             8    2     1       0.1579354856E-03       8    2    1         0.4102282759E-02      0.1841285949E-01
          0                 6           1             8    2     1       0.7097041992E-04       8    2    1         0.1843417376E-02      0.8231589647E-02
          0                 7           1             8    2     1       0.3189146605E-04       8    2    1         0.8283640382E-03      0.3683279823E-02
          0                 8           1             8    2     1       0.1433081954E-04       8    2    1         0.3722358930E-03      0.1648526229E-02
          0                 9           1             8    2     1       0.6439719832E-05       8    2    1         0.1672687007E-03      0.7379469784E-03

    ------------------------------------------------
       NWT REQUIRED            9 OUTER ITERATIONS 
       AND A TOTAL OF         14 INNER ITERATIONS.
    ------------------------------------------------

 NO OUTPUT CONTROL FOR STRESS PERIOD   23   TIME STEP   22
 
 SOLVING FOR HEAD 
                                                   Max.-Head-Change                         Max.-Flux-Residual
  Residual-Control   Outer-Iter.   Inner-Iter.     Column Row Layer    Maximum-Head-Change  Column Row Layer    Maximum-Flux-Residual          L2-NORM 
          0                 1           2             6   13     1       0.1107047935E-01       6   13    1         0.5884656307E+00      0.1473250626E+01
          0                 2           2             8    2     1       0.1739555101E-02       4    6    1         0.6314314316E-01      0.2807255527E+00
          0                 3           2             8    2     1       0.7816948008E-03       8    2    1         0.2030403580E-01      0.9638120314E-01
          0                 4           2             8    2     1       0.3512657356E-03       8    2    1         0.9123917122E-02      0.4136735752E-01
          0                 5           2             8    2     1       0.1578461006E-03       8    2    1         0.4099961838E-02      0.1839829723E-01
          0                 6           1             8    2     1       0.7093023658E-04       8    2    1         0.1842373999E-02      0.8225158096E-02
          0                 7           1             8    2     1       0.3187340128E-04       8    2    1         0.8278949803E-03      0.3680408028E-02
          0                 8           1             8    2     1       0.1432269844E-04       8    2    1         0.3720250250E-03      0.1647224104E-02
          0                 9           1             8    2     1       0.6436068711E-05       8    2    1         0.1671739014E-03      0.7373365704E-03

    ------------------------------------------------
       NWT REQUIRED            9 OUTER ITERATIONS 
       AND A TOTAL OF         14 INNER ITERATIONS.
    ------------------------------------------------

 NO OUTPUT CONTROL FOR STRESS PERIOD   23   TIME STEP   23
 
 SOLVING FOR HEAD 
                                                   Max.-Head-Change                         Max.-Flux-Residual
  Residual-Control   Outer-Iter.   Inner-Iter.     Column Row Layer    Maximum-Head-Change  Column Row Layer    Maximum-Flux-Residual          L2-NORM 
          0                 1           2             6   13     1       0.1082582600E-01       6   13    1         0.5754104125E+00      0.1451402448E+01
          0                 2           2             8    2     1       0.1738624723E-02       4    6    1         0.6143394438E-01      0.2788880185E+00
          0                 3           2             8    2     1       0.7812761842E-03       8    2    1         0.2029317438E-01      0.9598395265E-01
          0                 4           2             8    2     1       0.3510773167E-03       8    2    1         0.9119029854E-02      0.4118874779E-01
          0                 5           2             8    2     1       0.1577612582E-03       8    2    1         0.4097761937E-02      0.1831301226E-01
          0                 6           1             8    2     1       0.7089201486E-04       8    2    1         0.1841383336E-02      0.8184664456E-02
          0                 7           1             8    2     1       0.3185617338E-04       8    2    1         0.8274486476E-03      0.3661327240E-02
          0                 8           1             8    2     1       0.1431492849E-04       8    2    1         0.3718238227E-03      0.1638292577E-02
          0                 9           1             8    2     1       0.6432562404E-05       8    2    1         0.1670831510E-03      0.7331794652E-03

    ------------------------------------------------
       NWT REQUIRED            9 OUTER ITERATIONS 
       AND A TOTAL OF         14 INNER ITERATIONS.
    ------------------------------------------------

 NO OUTPUT CONTROL FOR STRESS PERIOD   23   TIME STEP   24
 
 SOLVING FOR HEAD 
                                                   Max.-Head-Change                         Max.-Flux-Residual
  Residual-Control   Outer-Iter.   Inner-Iter.     Column Row Layer    Maximum-Head-Change  Column Row Layer    Maximum-Flux-Residual          L2-NORM 
          0                 1           2             6   13     1       0.1058755443E-01       6   13    1         0.5626962341E+00      0.1430773069E+01
          0                 2           2             8    2     1       0.1737641605E-02       4    6    1         0.5983202661E-01      0.2771271878E+00
          0                 3           2             8    2     1       0.7808334029E-03       8    2    1         0.2028169573E-01      0.9562881485E-01
          0                 4           2             8    2     1       0.3508777846E-03       8    2    1         0.9113859492E-02      0.4104864561E-01
          0                 5           2             8    2     1       0.1576712963E-03       8    2    1         0.4095431772E-02      0.1825345309E-01
          0                 6           1             8    2     1       0.7085143434E-04       8    2    1         0.1840332644E-02      0.8159153636E-02
          0                 7           1             8    2     1       0.3183786000E-04       8    2    1         0.8269746583E-03      0.3650368287E-02
          0                 8           1             8    2     1       0.1430666032E-04       8    2    1         0.3716099016E-03      0.1633575762E-02
          0                 9           1             8    2     1       0.6428828246E-05       8    2    1         0.1669865680E-03      0.7311430078E-03

    ------------------------------------------------
       NWT REQUIRED            9 OUTER ITERATIONS 
       AND A TOTAL OF         14 INNER ITERATIONS.
    ------------------------------------------------

 NO OUTPUT CONTROL FOR STRESS PERIOD   23   TIME STEP   25
 
 SOLVING FOR HEAD 
                                                   Max.-Head-Change                         Max.-Flux-Residual
  Residual-Control   Outer-Iter.   Inner-Iter.     Column Row Layer    Maximum-Head-Change  Column Row Layer    Maximum-Flux-Residual          L2-NORM 
          0                 1           2             6   13     1       0.1035557868E-01       6   13    1         0.5503186847E+00      0.1411669801E+01
          0                 2           2             8    2     1       0.1736710123E-02       4    6    1         0.5832650568E-01      0.2758732321E+00
          0                 3           2             8    2     1       0.7804140307E-03       8    2    1         0.2027081968E-01      0.9551586698E-01
          0                 4           2             8    2     1       0.3506889800E-03       8    2    1         0.9108962902E-02      0.4101381682E-01
          0                 5           2             8    2     1       0.1575862971E-03       8    2    1         0.4093227302E-02      0.1823845494E-01
          0                 6           1             8    2     1       0.7081316935E-04       8    2    1         0.1839340211E-02      0.8152439723E-02
          0                 7           1             8    2     1       0.3182063410E-04       8    2    1         0.8265278842E-03      0.3647340894E-02
          0                 8           1             8    2     1       0.1429890612E-04       8    2    1         0.3714087764E-03      0.1632204236E-02
          0                 9           1             8    2     1       0.6425337446E-05       8    2    1         0.1668960241E-03      0.7305233303E-03

    ------------------------------------------------
       NWT REQUIRED            9 OUTER ITERATIONS 
       AND A TOTAL OF         14 INNER ITERATIONS.
    ------------------------------------------------

 NO OUTPUT CONTROL FOR STRESS PERIOD   23   TIME STEP   26
 
 SOLVING FOR HEAD 
                                                   Max.-Head-Change                         Max.-Flux-Residual
  Residual-Control   Outer-Iter.   Inner-Iter.     Column Row Layer    Maximum-Head-Change  Column Row Layer    Maximum-Flux-Residual          L2-NORM 
          0                 1           2             6   13     1       0.1012961199E-01       6   13    1         0.5382621864E+00      0.1393711923E+01
          0                 2           2             8    2     1       0.1735725681E-02       4    6    1         0.5691729051E-01      0.2746784147E+00
          0                 3           2             8    2     1       0.7799708859E-03       8    2    1         0.2025932561E-01      0.9540286956E-01
          0                 4           2             8    2     1       0.3504895045E-03       8    2    1         0.9103788894E-02      0.4097837752E-01
          0                 5           2             8    2     1       0.1574965084E-03       8    2    1         0.4090898308E-02      0.1822310562E-01
          0                 6           1             8    2     1       0.7077275416E-04       8    2    1         0.1838291879E-02      0.8145539022E-02
          0                 7           1             8    2     1       0.3180244302E-04       8    2    1         0.8260560154E-03      0.3644221552E-02
          0                 8           1             8    2     1       0.1429071849E-04       8    2    1         0.3711963869E-03      0.1630793951E-02
          0                 9           1             8    2     1       0.6421652310E-05       8    2    1         0.1668004254E-03      0.7298853761E-03

    ------------------------------------------------
       NWT REQUIRED            9 OUTER ITERATIONS 
       AND A TOTAL OF         14 INNER ITERATIONS.
    ------------------------------------------------

 NO OUTPUT CONTROL FOR STRESS PERIOD   23   TIME STEP   27
 
 SOLVING FOR HEAD 
                                                   Max.-Head-Change                         Max.-Flux-Residual
  Residual-Control   Outer-Iter.   Inner-Iter.     Column Row Layer    Maximum-Head-Change  Column Row Layer    Maximum-Flux-Residual          L2-NORM 
          0                 1           2             6   13     1       0.9909577147E-02       6   13    1         0.5265227230E+00      0.1375967853E+01
          0                 2           2             8    2     1       0.1734793451E-02       4    6    1         0.5558976709E-01      0.2738228009E+00
          0                 3           2             8    2     1       0.7795512181E-03       8    2    1         0.2024844103E-01      0.9524808699E-01
          0                 4           2             8    2     1       0.3503005856E-03       8    2    1         0.9098888950E-02      0.4094411643E-01
          0                 5           2             8    2     1       0.1574114659E-03       8    2    1         0.4088692538E-02      0.1820863539E-01
          0                 6           1             8    2     1       0.7073447267E-04       8    2    1         0.1837298945E-02      0.8139008718E-02
          0                 7           1             8    2     1       0.3178521137E-04       8    2    1         0.8256090560E-03      0.3641256845E-02
          0                 8           1             8    2     1       0.1428296154E-04       8    2    1         0.3709951960E-03      0.1629449389E-02
          0                 9           1             8    2     1       0.6418161260E-05       8    2    1         0.1667098737E-03      0.7292737554E-03

    ------------------------------------------------
       NWT REQUIRED            9 OUTER ITERATIONS 
       AND A TOTAL OF         14 INNER ITERATIONS.
    ------------------------------------------------

 NO OUTPUT CONTROL FOR STRESS PERIOD   23   TIME STEP   28
 
 SOLVING FOR HEAD 
                                                   Max.-Head-Change                         Max.-Flux-Residual
  Residual-Control   Outer-Iter.   Inner-Iter.     Column Row Layer    Maximum-Head-Change  Column Row Layer    Maximum-Flux-Residual          L2-NORM 
          0                 1           2             6   13     1       0.9685407210E-02       6   13    1         0.5148737404E+00      0.1358507517E+01
          0                 2           2             8    2     1       0.1733808395E-02       4    6    1         0.5434496890E-01      0.2720245459E+00
          0                 3           2             8    2     1       0.7791078345E-03       8    2    1         0.2023693998E-01      0.9516074660E-01
          0                 4           2             8    2     1       0.3501010187E-03       8    2    1         0.9093712232E-02      0.4090794211E-01
          0                 5           2             8    2     1       0.1573216431E-03       8    2    1         0.4086362508E-02      0.1819299306E-01
          0                 6           1             8    2     1       0.7069404522E-04       8    2    1         0.1836250227E-02      0.8132021877E-02
          0                 7           1             8    2     1       0.3176701605E-04       8    2    1         0.8251370487E-03      0.3638111020E-02
          0                 8           1             8    2     1       0.1427477266E-04       8    2    1         0.3707827593E-03      0.1628027893E-02
          0                 9           1             8    2     1       0.6414475374E-05       8    2    1         0.1666142607E-03      0.7286378971E-03

    ------------------------------------------------
       NWT REQUIRED            9 OUTER ITERATIONS 
       AND A TOTAL OF         14 INNER ITERATIONS.
    ------------------------------------------------

 NO OUTPUT CONTROL FOR STRESS PERIOD   23   TIME STEP   29
 
 SOLVING FOR HEAD 
                                                   Max.-Head-Change                         Max.-Flux-Residual
  Residual-Control   Outer-Iter.   Inner-Iter.     Column Row Layer    Maximum-Head-Change  Column Row Layer    Maximum-Flux-Residual          L2-NORM 
          0                 1           2             6   13     1       0.9462501659E-02       6   13    1         0.5032485617E+00      0.1331572145E+01
          0                 2           2             8    2     1       0.1732875842E-02       4    6    1         0.5316932086E-01      0.2699794075E+00
          0                 3           2             8    2     1       0.7786880984E-03       8    2    1         0.2022605201E-01      0.9498323606E-01
          0                 4           2             8    2     1       0.3499121036E-03       8    2    1         0.9088811645E-02      0.4086859228E-01
          0                 5           2             8    2     1       0.1572366181E-03       8    2    1         0.4084156856E-02      0.1817766060E-01
          0                 6           1             8    2     1       0.7065577923E-04       8    2    1         0.1835257537E-02      0.8125238703E-02
          0                 7           1             8    2     1       0.3174979440E-04       8    2    1         0.8246902842E-03      0.3635051484E-02
          0                 8           1             8    2     1       0.1426702247E-04       8    2    1         0.3705816996E-03      0.1626644809E-02
          0                 9           1             8    2     1       0.6410987825E-05       8    2    1         0.1665237793E-03      0.7280079559E-03

    ------------------------------------------------
       NWT REQUIRED            9 OUTER ITERATIONS 
       AND A TOTAL OF         14 INNER ITERATIONS.
    ------------------------------------------------

 NO OUTPUT CONTROL FOR STRESS PERIOD   23   TIME STEP   30



 STREAM LISTING     PERIOD     23   STEP       30

 LAYER ROW COL. STREAM  RCH.  FLOW INTO     FLOW TO   FLOW OUT OF   OVRLND.     DIRECT     STREAM       STREAM     STREAM     STREAM   STREAMBED  STREAMBED
                SEG.NO.  NO.  STRM. RCH.    AQUIFER    STRM. RCH.    RUNOFF     PRECIP       ET          HEAD       DEPTH      WIDTH   CONDCTNC.   GRADIENT

   1    1    1     1     1    3.2000E+00  8.0317E-02   3.1197E+00  0.000E+00  0.000E+00  0.000E+00  1.09369E+03  6.449E-01  4.897E+00  2.204E-02  1.215E+00
   1    2    2     1     2    3.1197E+00  1.2332E-01   2.9964E+00  0.000E+00  0.000E+00  0.000E+00  1.08870E+03  6.376E-01  4.843E+00  3.390E-02  1.213E+00
   1    3    3     1     3    2.9964E+00  1.0413E-01   2.8922E+00  0.000E+00  0.000E+00  0.000E+00  1.08305E+03  6.292E-01  4.782E+00  2.869E-02  1.210E+00
   1    3    4     1     4    2.8922E+00  9.5018E-02   2.7972E+00  0.000E+00  0.000E+00  0.000E+00  1.07803E+03  6.217E-01  4.727E+00  2.624E-02  1.207E+00
   1    4    5     2     1    7.9721E-01  2.4478E-01   5.5243E-01  0.000E+00  0.000E+00  0.000E+00  1.07207E+03  1.382E-01  1.200E+01  7.800E-02  1.046E+00
   1    5    6     2     2    5.5243E-01  1.8658E-01   3.6584E-01  0.000E+00  0.000E+00  0.000E+00  1.06662E+03  1.097E-01  1.200E+01  6.000E-02  1.037E+00
   1    6    6     2     3    3.6584E-01  1.8482E-01   1.8102E-01  0.000E+00  0.000E+00  0.000E+00  1.06187E+03  8.040E-02  1.200E+01  6.000E-02  1.027E+00
   1    7    6     2     4    1.8102E-01  1.8102E-01   0.0000E+00  0.000E+00  0.000E+00  0.000E+00  1.05710E+03  2.119E-02  1.200E+01  6.000E-02  1.007E+00
   1    8    6     2     5    0.0000E+00  0.0000E+00   0.0000E+00  0.000E+00  0.000E+00  0.000E+00  1.05236E+03  0.000E+00  1.200E+01  6.000E-02  1.000E+00
   1    3    5     3     1    2.0000E+00  2.8252E-01   1.7175E+00  0.000E+00  0.000E+00  0.000E+00  1.07555E+03  1.909E+00  9.636E+00  7.227E-02  1.955E+00
   1    3    6     3     2    1.7175E+00  2.4905E-01   1.4684E+00  0.000E+00  0.000E+00  0.000E+00  1.07264E+03  1.727E+00  8.909E+00  6.682E-02  1.864E+00
   1    3    7     3     3    1.4684E+00  1.9718E-01   1.2712E+00  0.000E+00  0.000E+00  0.000E+00  1.06987E+03  1.555E+00  8.218E+00  5.547E-02  1.777E+00
   1    4    8     3     4    1.2712E+00  2.2567E-01   1.0456E+00  0.000E+00  0.000E+00  0.000E+00  1.06682E+03  1.364E+00  7.455E+00  6.709E-02  1.682E+00
   1    5    8     3     5    1.0456E+00  1.5790E-01   8.8768E-01  0.000E+00  0.000E+00  0.000E+00  1.06362E+03  1.164E+00  6.655E+00  4.991E-02  1.582E+00
   1    6    8     3     6    8.8768E-01  5.5980E-02   8.3170E-01  0.000E+00  0.000E+00  0.000E+00  1.06158E+03  1.036E+00  6.145E+00  1.844E-02  1.518E+00
   1    5   10     4     1    1.0000E+01  9.0919E-02   9.9091E+00  0.000E+00  0.000E+00  0.000E+00  1.07836E+03  6.368E-01  1.000E+01  2.500E-02  1.212E+00
   1    5    9     4     2    9.9091E+00  1.8158E-01   9.7275E+00  0.000E+00  0.000E+00  0.000E+00  1.07154E+03  6.315E-01  1.000E+01  5.000E-02  1.211E+00
   1    6    8     4     3    9.7275E+00  1.2689E-01   9.6006E+00  0.000E+00  0.000E+00  0.000E+00  1.06381E+03  6.256E-01  1.000E+01  3.500E-02  1.209E+00
   1    6    8     5     1    1.0432E+01  2.2686E-01   1.0205E+01  0.000E+00  0.000E+00  0.000E+00  1.05868E+03  6.790E-01  1.542E+01  6.166E-02  1.226E+00
   1    7    7     5     2    1.0205E+01  2.7894E-01   9.9265E+00  0.000E+00  0.000E+00  0.000E+00  1.05417E+03  6.732E-01  1.519E+01  7.594E-02  1.224E+00
   1    8    7     5     3    9.9265E+00  1.9221E-01   9.7343E+00  0.000E+00  0.000E+00  0.000E+00  1.04992E+03  6.676E-01  1.497E+01  5.241E-02  1.223E+00
   1    8    6     5     4    9.7343E+00  1.3577E-01   9.5985E+00  0.000E+00  0.000E+00  0.000E+00  1.04691E+03  6.637E-01  1.482E+01  3.706E-02  1.221E+00
   1    9    6     6     1    9.5985E+00  2.2097E-01   9.3776E+00  0.000E+00  0.000E+00  0.000E+00  1.04341E+03  6.828E-01  1.200E+01  6.000E-02  1.228E+00
   1   10    7     6     2    9.3776E+00  2.2039E-01   9.1572E+00  0.000E+00  0.000E+00  0.000E+00  1.03885E+03  6.732E-01  1.200E+01  6.000E-02  1.224E+00
   1   11    7     6     3    9.1572E+00  2.1981E-01   8.9374E+00  0.000E+00  0.000E+00  0.000E+00  1.03430E+03  6.636E-01  1.200E+01  6.000E-02  1.221E+00
   1   12    7     6     4    8.9374E+00  2.1923E-01   8.7181E+00  0.000E+00  0.000E+00  0.000E+00  1.02974E+03  6.539E-01  1.200E+01  6.000E-02  1.218E+00
   1   13    7     6     5    8.7181E+00 -1.6786E-01   8.8860E+00  0.000E+00  0.000E+00  0.000E+00  1.02656E+03  6.527E-01  1.200E+01  2.400E-01 -2.331E-01
   1   14    9     7     1    1.5000E+02  1.1804E+00   1.4882E+02  0.000E+00  0.000E+00  0.000E+00  1.03987E+03  2.288E+00  5.530E+01  5.593E-01  7.035E-01
   1   13    8     7     2    1.4882E+02  1.6689E+00   1.4715E+02  0.000E+00  0.000E+00  0.000E+00  1.03478E+03  2.281E+00  5.526E+01  6.148E-01  9.048E-01
   1   13    7     7     3    1.4715E+02  1.3576E+00   1.4579E+02  0.000E+00  0.000E+00  0.000E+00  1.02969E+03  2.272E+00  5.523E+01  5.586E-01  8.102E-01
   1   13    6     8     1    1.5468E+02  7.3407E-01   1.5395E+02  0.000E+00  0.000E+00  0.000E+00  1.02472E+03  2.847E+00  4.128E+01  4.207E-01  5.817E-01
   1   13    5     8     2    1.5395E+02 -6.0571E-02   1.5401E+02  0.000E+00  0.000E+00  0.000E+00  1.01847E+03  2.845E+00  4.125E+01  4.203E+00 -4.804E-03
   1   13    4     8     3    1.5401E+02 -3.3000E+00   1.5731E+02  0.000E+00  0.000E+00  0.000E+00  1.01223E+03  2.856E+00  4.141E+01  4.220E+00 -2.606E-01
   1   13    3     8     4    1.5731E+02 -4.2078E+00   1.6151E+02  0.000E+00  0.000E+00  0.000E+00  1.00601E+03  2.882E+00  4.179E+01  4.258E+00 -3.294E-01
   1   13    2     8     5    1.6151E+02 -2.7126E+00   1.6423E+02  0.000E+00  0.000E+00  0.000E+00  9.99780E+02  2.905E+00  4.212E+01  4.293E+00 -2.106E-01
   1   13    1     8     6    1.6423E+02 -1.8665E+00   1.6609E+02  0.000E+00  0.000E+00  0.000E+00  9.94795E+02  2.920E+00  4.235E+01  2.589E+00 -2.403E-01
   1    6    8     9     1    0.0000E+00  0.0000E+00   0.0000E+00  0.000E+00  0.000E+00  0.000E+00  1.07850E+03  0.000E+00  4.000E+00  0.000E+00  1.000E+00





UNSATURATED ZONE PACKAGE VOLUMETRIC BUDGET FOR  TIME STEP    30 STRESS PERIOD   23
  ------------------------------------------------------------------------------



     CUMULATIVE VOLUMES      L**3       RATES FOR THIS TIME STEP      L**3/T
     ------------------                 ------------------------

           IN:                                      IN:
           ---                                      ---
        INFILTRATION =    78356297.8346          INFILTRATION =       0.0000E+00

          OUT:                                     OUT:
          ----                                     ----
              UZF ET =   602760270.1707                UZF ET =           0.0025
        UZF RECHARGE =  1293282376.9878          UZF RECHARGE =          17.5730

            IN - OUT = -1817686349.3240              IN - OUT =         -17.5755

          STORAGE:                                 STORAGE:
          --------                                 --------
      STORAGE CHANGE = -1817660596.0996        STORAGE CHANGE =         -17.5755

 PERCENT DISCREPANCY IS DIFFERENCE BETWEEN IN-OUT MINUS CHANGE IN STORAGE
 DIVIDED BY THE AVERAGE OF IN AND OUT TIMES 100

 PERCENT DISCREPANCY =          -0.00     PERCENT DISCREPANCY =           0.00






1
  VOLUMETRIC BUDGET FOR ENTIRE MODEL AT END OF TIME STEP   30, STRESS PERIOD  23
  ------------------------------------------------------------------------------

     CUMULATIVE VOLUMES      L**3       RATES FOR THIS TIME STEP      L**3/T
     ------------------                 ------------------------

           IN:                                      IN:
           ---                                      ---
             STORAGE     =    79737224.0000               STORAGE     =           0.3197
       CONSTANT HEAD     =           0.0000         CONSTANT HEAD     =           0.0000
               WELLS     =           0.0000                 WELLS     =           0.0000
     HEAD DEP BOUNDS     =    15928400.0000       HEAD DEP BOUNDS     =           0.2752
      STREAM LEAKAGE     =   640336128.0000        STREAM LEAKAGE     =           9.4228
        UZF RECHARGE     =  1293283328.0000          UZF RECHARGE     =          17.5730
               GW ET     =           0.0000                 GW ET     =           0.0000
     SURFACE LEAKAGE     =           0.0000       SURFACE LEAKAGE     =           0.0000
    SUPPLEMENTARY WELLS  =           0.0000      SUPPLEMENTARY WELLS  =           0.0000

                TOTAL IN =  2029285120.0000                  TOTAL IN =          27.5907

          OUT:                                     OUT:
          ----                                     ----
             STORAGE     =  1213216768.0000               STORAGE     =          14.9702
       CONSTANT HEAD     =           0.0000         CONSTANT HEAD     =           0.0000
               WELLS     =           0.0000                 WELLS     =           0.0000
     HEAD DEP BOUNDS     =    16598986.0000       HEAD DEP BOUNDS     =           0.2856
      STREAM LEAKAGE     =   614127680.0000        STREAM LEAKAGE     =          12.3154
        UZF RECHARGE     =           0.0000          UZF RECHARGE     =           0.0000
               GW ET     =   181990784.0000                 GW ET     =       1.7500E-02
     SURFACE LEAKAGE     =           0.0000       SURFACE LEAKAGE     =           0.0000
    SUPPLEMENTARY WELLS  =     3166757.2500      SUPPLEMENTARY WELLS  =           0.0000

               TOTAL OUT =  2029100928.0000                 TOTAL OUT =          27.5886

                IN - OUT =      184192.0000                  IN - OUT =       2.0370E-03

     PERCENT DISCREPANCY =           0.01         PERCENT DISCREPANCY =           0.01






         TIME SUMMARY AT END OF TIME STEP   30 IN STRESS PERIOD   23
                    SECONDS     MINUTES      HOURS       DAYS        YEARS
                    -----------------------------------------------------------
   TIME STEP LENGTH  87600.      1460.0      24.333      1.0139     2.77588E-03
 STRESS PERIOD TIME 2.62800E+06  43800.      730.00      30.417     8.32763E-02
         TOTAL TIME 5.79024E+07 9.65040E+05  16084.      670.17      1.8348    
1
1
                            STRESS PERIOD NO.   24, LENGTH =   2628000.    
                            -----------------------------------------------

                              NUMBER OF TIME STEPS =    30

                               MULTIPLIER FOR DELT =     1.000

                            INITIAL TIME STEP SIZE =   87600.00    

 WELL NO.  LAYER   ROW   COL   STRESS RATE         
 --------------------------------------------------
      1      1      6      4       0.000    
      2      1      6      7       0.000    
      3      1      7      4       0.000    
      4      1      7      5       0.000    
      5      1      8      4       0.000    
      6      1      8      5       0.000    
      7      1      9      4       0.000    
      8      1      9      5       0.000    
      9      1     10      4       0.000    
     10      1     10      5       0.000    

     10 WELLS

 REUSING NON-PARAMETER GHB CELLS FROM LAST STRESS PERIOD

      2 GHB CELLS

 REUSING STREAM SEGMENT DATA FROM LAST STRESS PERIOD



            AREAL INFILTRATION RATE
 READING ON UNIT   19 WITH FORMAT: (10F4.0)            

            1           2           3           4           5           6           7           8           9          10
 ........................................................................................................................
   1    0.000       0.000       0.000       0.000       0.000       0.000       0.000       0.000       0.000       0.000    
   2    0.000       0.000       0.000       0.000       0.000       0.000       0.000       0.000       0.000       0.000    
   3    0.000       0.000       0.000       0.000       0.000       0.000       0.000       0.000       0.000       0.000    
   4    0.000       0.000       0.000       0.000       0.000       0.000       0.000       0.000       0.000       0.000    
   5    0.000       0.000       0.000       0.000       0.000       0.000       0.000       0.000       0.000       0.000    
   6    0.000       0.000       0.000       0.000       0.000       0.000       0.000       0.000       0.000       0.000    
   7    0.000       0.000       0.000       0.000       0.000       0.000       0.000       0.000       0.000       0.000    
   8    0.000       0.000       0.000       0.000       0.000       0.000       0.000       0.000       0.000       0.000    
   9    0.000       0.000       0.000       0.000       0.000       0.000       0.000       0.000       0.000       0.000    
  10    0.000       0.000       0.000       0.000       0.000       0.000       0.000       0.000       0.000       0.000    
  11    0.000       0.000       0.000       0.000       0.000       0.000       0.000       0.000       0.000       0.000    
  12    0.000       0.000       0.000       0.000       0.000       0.000       0.000       0.000       0.000       0.000    
  13    0.000       0.000       0.000       0.000       0.000       0.000       0.000       0.000       0.000       0.000    
  14    0.000       0.000       0.000       0.000       0.000       0.000       0.000       0.000       0.000       0.000    
  15    0.000       0.000       0.000       0.000       0.000       0.000       0.000       0.000       0.000       0.000    

                  ET RATE =  1.000000E-10

 USING ET EXTINCTION DEPTH FROM PREVIOUS STRESS PERIOD. CURRENT PERIOD IS:      24

 USING EXTINCTION WATER CONTENT FROM PREVIOUS STRESS PERIOD. CURRENT PERIOD IS:      24

 PROCESSING AGO STRESS PERIOD DATA

 READING AGO STRESS PERIOD DATA

 READING IRRIGATION STREAM

 READING IRRIGATION WELL

 READING SUPPLEMENTAL WEL

 END PROCESSING AGO STRESS PERIOD DATA OPTIONS
 
 SOLVING FOR HEAD 
                                                   Max.-Head-Change                         Max.-Flux-Residual
  Residual-Control   Outer-Iter.   Inner-Iter.     Column Row Layer    Maximum-Head-Change  Column Row Layer    Maximum-Flux-Residual          L2-NORM 
          0                 1           2             6   13     1       0.9244981758E-02       6   13    1         0.4918581828E+00      0.1308032645E+01
          0                 2           2             8    2     1       0.1731890600E-02       4    6    1         0.5206479206E-01      0.2684896488E+00
          0                 3           2             8    2     1       0.7782446768E-03       8    2    1         0.2021454898E-01      0.9486454085E-01
          0                 4           2             8    2     1       0.3497125413E-03       8    2    1         0.9083634572E-02      0.4083501146E-01
          0                 5           2             8    2     1       0.1571468072E-03       8    2    1         0.4081826922E-02      0.1816318574E-01
          0                 6           1             8    2     1       0.7061536203E-04       8    2    1         0.1834208987E-02      0.8118688577E-02
          0                 7           1             8    2     1       0.3173160607E-04       8    2    1         0.8242184129E-03      0.3632073923E-02
          0                 8           1             8    2     1       0.1425883808E-04       8    2    1         0.3703693538E-03      0.1625292545E-02
          0                 9           1             8    2     1       0.6407304940E-05       8    2    1         0.1664282192E-03      0.7273949762E-03

    ------------------------------------------------
       NWT REQUIRED            9 OUTER ITERATIONS 
       AND A TOTAL OF         14 INNER ITERATIONS.
    ------------------------------------------------

 NO OUTPUT CONTROL FOR STRESS PERIOD   24   TIME STEP    1
 
 SOLVING FOR HEAD 
                                                   Max.-Head-Change                         Max.-Flux-Residual
  Residual-Control   Outer-Iter.   Inner-Iter.     Column Row Layer    Maximum-Head-Change  Column Row Layer    Maximum-Flux-Residual          L2-NORM 
          0                 1           2             6   13     1       0.9029605929E-02       6   13    1         0.4805508325E+00      0.1286917722E+01
          0                 2           2             8    2     1       0.1730905388E-02       4    6    1         0.5102127869E-01      0.2671578293E+00
          0                 3           2             8    2     1       0.7778012894E-03       8    2    1         0.2020304642E-01      0.9474411856E-01
          0                 4           2             8    2     1       0.3495130039E-03       8    2    1         0.9078457965E-02      0.4079775444E-01
          0                 5           2             8    2     1       0.1570570123E-03       8    2    1         0.4079497310E-02      0.1814711802E-01
          0                 6           1             8    2     1       0.7057495384E-04       8    2    1         0.1833160622E-02      0.8111498588E-02
          0                 7           1             8    2     1       0.3171342250E-04       8    2    1         0.8237466399E-03      0.3628839335E-02
          0                 8           1             8    2     1       0.1425065545E-04       8    2    1         0.3701570563E-03      0.1623835876E-02
          0                 9           1             8    2     1       0.6403622805E-05       8    2    1         0.1663326914E-03      0.7267385237E-03

    ------------------------------------------------
       NWT REQUIRED            9 OUTER ITERATIONS 
       AND A TOTAL OF         14 INNER ITERATIONS.
    ------------------------------------------------

 NO OUTPUT CONTROL FOR STRESS PERIOD   24   TIME STEP    2
 
 SOLVING FOR HEAD 
                                                   Max.-Head-Change                         Max.-Flux-Residual
  Residual-Control   Outer-Iter.   Inner-Iter.     Column Row Layer    Maximum-Head-Change  Column Row Layer    Maximum-Flux-Residual          L2-NORM 
          0                 1           2             6   13     1       0.8817038142E-02       6   13    1         0.4693656896E+00      0.1267849817E+01
          0                 2           2             8    2     1       0.1729920279E-02       4    6    1         0.5003656804E-01      0.2659367619E+00
          0                 3           2             8    2     1       0.7773579679E-03       8    2    1         0.2019154515E-01      0.9462330892E-01
          0                 4           2             8    2     1       0.3493135038E-03       8    2    1         0.9073282151E-02      0.4075910277E-01
          0                 5           2             8    2     1       0.1569672372E-03       8    2    1         0.4077168147E-02      0.1813049703E-01
          0                 6           1             8    2     1       0.7053455591E-04       8    2    1         0.1832112504E-02      0.8104103863E-02
          0                 7           1             8    2     1       0.3169524468E-04       8    2    1         0.8232750043E-03      0.3625531164E-02
          0                 8           1             8    2     1       0.1424247582E-04       8    2    1         0.3699448290E-03      0.1622353122E-02
          0                 9           1             8    2     1       0.6399942421E-05       8    2    1         0.1662371955E-03      0.7260732882E-03

    ------------------------------------------------
       NWT REQUIRED            9 OUTER ITERATIONS 
       AND A TOTAL OF         14 INNER ITERATIONS.
    ------------------------------------------------

 NO OUTPUT CONTROL FOR STRESS PERIOD   24   TIME STEP    3
 
 SOLVING FOR HEAD 
                                                   Max.-Head-Change                         Max.-Flux-Residual
  Residual-Control   Outer-Iter.   Inner-Iter.     Column Row Layer    Maximum-Head-Change  Column Row Layer    Maximum-Flux-Residual          L2-NORM 
          0                 1           2             6   13     1       0.8607448025E-02       6   13    1         0.4583152171E+00      0.1250241683E+01
          0                 2           2             8    2     1       0.1728987855E-02       4    6    1         0.4910655008E-01      0.2648098950E+00
          0                 3           2             8    2     1       0.7769383378E-03       8    2    1         0.2018065890E-01      0.9451404040E-01
          0                 4           2             8    2     1       0.3491246580E-03       8    2    1         0.9068382904E-02      0.4072438598E-01
          0                 5           2             8    2     1       0.1568822530E-03       8    2    1         0.4074963346E-02      0.1811543358E-01
          0                 6           1             8    2     1       0.7049631268E-04       8    2    1         0.1831120308E-02      0.8097337877E-02
          0                 7           1             8    2     1       0.3167803504E-04       8    2    1         0.8228285068E-03      0.3622479640E-02
          0                 8           1             8    2     1       0.1423473188E-04       8    2    1         0.3697439088E-03      0.1620980344E-02
          0                 9           1             8    2     1       0.6396457624E-05       8    2    1         0.1661467827E-03      0.7254598001E-03

    ------------------------------------------------
       NWT REQUIRED            9 OUTER ITERATIONS 
       AND A TOTAL OF         14 INNER ITERATIONS.
    ------------------------------------------------

 NO OUTPUT CONTROL FOR STRESS PERIOD   24   TIME STEP    4
 
 SOLVING FOR HEAD 
                                                   Max.-Head-Change                         Max.-Flux-Residual
  Residual-Control   Outer-Iter.   Inner-Iter.     Column Row Layer    Maximum-Head-Change  Column Row Layer    Maximum-Flux-Residual          L2-NORM 
          0                 1           2             6   13     1       0.8401249332E-02       6   13    1         0.4474245401E+00      0.1234288475E+01
          0                 2           2             8    2     1       0.1728002325E-02       4    6    1         0.4822714237E-01      0.2636244308E+00
          0                 3           2             8    2     1       0.7764944832E-03       8    2    1         0.2016915169E-01      0.9429553304E-01
          0                 4           2             8    2     1       0.3489246900E-03       8    2    1         0.9063200087E-02      0.4063213930E-01
          0                 5           2             8    2     1       0.1567921295E-03       8    2    1         0.4072628209E-02      0.1807302597E-01
          0                 6           1             8    2     1       0.7045567889E-04       8    2    1         0.1830067810E-02      0.8078767164E-02
          0                 7           1             8    2     1       0.3165970740E-04       8    2    1         0.8223539406E-03      0.3613084017E-02
          0                 8           1             8    2     1       0.1422646146E-04       8    2    1         0.3695298378E-03      0.1616590345E-02
          0                 9           1             8    2     1       0.6392724217E-05       8    2    1         0.1660501816E-03      0.7234124216E-03

    ------------------------------------------------
       NWT REQUIRED            9 OUTER ITERATIONS 
       AND A TOTAL OF         14 INNER ITERATIONS.
    ------------------------------------------------

 NO OUTPUT CONTROL FOR STRESS PERIOD   24   TIME STEP    5
 
 SOLVING FOR HEAD 
                                                   Max.-Head-Change                         Max.-Flux-Residual
  Residual-Control   Outer-Iter.   Inner-Iter.     Column Row Layer    Maximum-Head-Change  Column Row Layer    Maximum-Flux-Residual          L2-NORM 
          0                 1           2             6   13     1       0.8198802803E-02       6   13    1         0.4367155093E+00      0.1219862917E+01
          0                 2           2             8    2     1       0.1727015983E-02       4    6    1         0.4739708397E-01      0.2626809672E+00
          0                 3           2             8    2     1       0.7760504131E-03       8    2    1         0.2015763513E-01      0.9418437625E-01
          0                 4           2             8    2     1       0.3487247637E-03       8    2    1         0.9058015126E-02      0.4059328599E-01
          0                 5           2             8    2     1       0.1567021210E-03       8    2    1         0.4070293874E-02      0.1805545609E-01
          0                 6           1             8    2     1       0.7041515665E-04       8    2    1         0.1829016877E-02      0.8069595151E-02
          0                 7           1             8    2     1       0.3164146455E-04       8    2    1         0.8218808130E-03      0.3609648290E-02
          0                 8           1             8    2     1       0.1421824881E-04       8    2    1         0.3693168398E-03      0.1615049999E-02
          0                 9           1             8    2     1       0.6389027075E-05       8    2    1         0.1659542893E-03      0.7227190047E-03

    ------------------------------------------------
       NWT REQUIRED            9 OUTER ITERATIONS 
       AND A TOTAL OF         14 INNER ITERATIONS.
    ------------------------------------------------

 NO OUTPUT CONTROL FOR STRESS PERIOD   24   TIME STEP    6
 
 SOLVING FOR HEAD 
                                                   Max.-Head-Change                         Max.-Flux-Residual
  Residual-Control   Outer-Iter.   Inner-Iter.     Column Row Layer    Maximum-Head-Change  Column Row Layer    Maximum-Flux-Residual          L2-NORM 
          0                 1           2             6   13     1       0.8000092580E-02       6   13    1         0.4261897796E+00      0.1206414957E+01
          0                 2           2             8    2     1       0.1726029150E-02       4    6    1         0.4660800513E-01      0.2611931352E+00
          0                 3           2             8    2     1       0.7756061609E-03       8    2    1         0.2014611299E-01      0.9406742938E-01
          0                 4           2             8    2     1       0.3485247769E-03       8    2    1         0.9052828119E-02      0.4055762624E-01
          0                 5           2             8    2     1       0.1566120973E-03       8    2    1         0.4067958889E-02      0.1804002612E-01
          0                 6           1             8    2     1       0.7037463441E-04       8    2    1         0.1827965796E-02      0.8062676149E-02
          0                 7           1             8    2     1       0.3162322471E-04       8    2    1         0.8214076866E-03      0.3606530642E-02
          0                 8           1             8    2     1       0.1421003892E-04       8    2    1         0.3691038763E-03      0.1613643551E-02
          0                 9           1             8    2     1       0.6385331685E-05       8    2    1         0.1658584341E-03      0.7220847211E-03

    ------------------------------------------------
       NWT REQUIRED            9 OUTER ITERATIONS 
       AND A TOTAL OF         14 INNER ITERATIONS.
    ------------------------------------------------

 NO OUTPUT CONTROL FOR STRESS PERIOD   24   TIME STEP    7
 
 SOLVING FOR HEAD 
                                                   Max.-Head-Change                         Max.-Flux-Residual
  Residual-Control   Outer-Iter.   Inner-Iter.     Column Row Layer    Maximum-Head-Change  Column Row Layer    Maximum-Flux-Residual          L2-NORM 
          0                 1           2             6   13     1       0.7812470224E-02       6   13    1         0.4160930784E+00      0.1195825462E+01
          0                 2           2             8    2     1       0.1725041934E-02       4    6    1         0.4585939868E-01      0.2607407435E+00
          0                 3           2             8    2     1       0.7751617603E-03       8    2    1         0.2013458650E-01      0.9396739179E-01
          0                 4           2             8    2     1       0.3483247344E-03       8    2    1         0.9047639438E-02      0.4052103310E-01
          0                 5           2             8    2     1       0.1565220528E-03       8    2    1         0.4065623262E-02      0.1802401081E-01
          0                 6           1             8    2     1       0.7033410416E-04       8    2    1         0.1826914473E-02      0.8055494707E-02
          0                 7           1             8    2     1       0.3160498186E-04       8    2    1         0.8209344749E-03      0.3603299378E-02
          0                 8           1             8    2     1       0.1420182827E-04       8    2    1         0.3688908876E-03      0.1612190652E-02
          0                 9           1             8    2     1       0.6381636294E-05       8    2    1         0.1657625722E-03      0.7214358537E-03

    ------------------------------------------------
       NWT REQUIRED            9 OUTER ITERATIONS 
       AND A TOTAL OF         14 INNER ITERATIONS.
    ------------------------------------------------

 NO OUTPUT CONTROL FOR STRESS PERIOD   24   TIME STEP    8
 
 SOLVING FOR HEAD 
                                                   Max.-Head-Change                         Max.-Flux-Residual
  Residual-Control   Outer-Iter.   Inner-Iter.     Column Row Layer    Maximum-Head-Change  Column Row Layer    Maximum-Flux-Residual          L2-NORM 
          0                 1           2             6   13     1       0.7631880500E-02       6   13    1         0.4065468964E+00      0.1184351185E+01
          0                 2           2             8    2     1       0.1724054426E-02       4    6    1         0.4514848857E-01      0.2599812074E+00
          0                 3           2             8    2     1       0.7747172522E-03       8    2    1         0.2012305670E-01      0.9386819712E-01
          0                 4           2             8    2     1       0.3481246548E-03       8    2    1         0.9042449561E-02      0.4048494644E-01
          0                 5           2             8    2     1       0.1564319968E-03       8    2    1         0.4063287232E-02      0.1800808764E-01
          0                 6           1             8    2     1       0.7029357067E-04       8    2    1         0.1825863026E-02      0.8048333672E-02
          0                 7           1             8    2     1       0.3158673926E-04       8    2    1         0.8204612373E-03      0.3600076822E-02
          0                 8           1             8    2     1       0.1419361788E-04       8    2    1         0.3686778933E-03      0.1610744024E-02
          0                 9           1             8    2     1       0.6377940903E-05       8    2    1         0.1656667080E-03      0.7207911333E-03

    ------------------------------------------------
       NWT REQUIRED            9 OUTER ITERATIONS 
       AND A TOTAL OF         14 INNER ITERATIONS.
    ------------------------------------------------

 NO OUTPUT CONTROL FOR STRESS PERIOD   24   TIME STEP    9
 
 SOLVING FOR HEAD 
                                                   Max.-Head-Change                         Max.-Flux-Residual
  Residual-Control   Outer-Iter.   Inner-Iter.     Column Row Layer    Maximum-Head-Change  Column Row Layer    Maximum-Flux-Residual          L2-NORM 
          0                 1           2             6   13     1       0.7454251035E-02       6   13    1         0.3971490435E+00      0.1173496799E+01
          0                 2           2             8    2     1       0.1723066571E-02       8    2    1         0.4475613519E-01      0.2589210156E+00
          0                 3           2             8    2     1       0.7742725793E-03       8    2    1         0.2011152282E-01      0.9357443654E-01
          0                 4           2             8    2     1       0.3479244952E-03       8    2    1         0.9037257715E-02      0.4035764014E-01
          0                 5           2             8    2     1       0.1563419026E-03       8    2    1         0.4060950261E-02      0.1795094243E-01
          0                 6           1             8    2     1       0.7025301941E-04       8    2    1         0.1824811136E-02      0.8022667377E-02
          0                 7           1             8    2     1       0.3156848765E-04       8    2    1         0.8199877881E-03      0.3588565789E-02
          0                 8           1             8    2     1       0.1418540323E-04       8    2    1         0.3684648041E-03      0.1605586702E-02
          0                 9           1             8    2     1       0.6374244262E-05       8    2    1         0.1655708093E-03      0.7184756723E-03

    ------------------------------------------------
       NWT REQUIRED            9 OUTER ITERATIONS 
       AND A TOTAL OF         14 INNER ITERATIONS.
    ------------------------------------------------

 NO OUTPUT CONTROL FOR STRESS PERIOD   24   TIME STEP   10
 
 SOLVING FOR HEAD 
                                                   Max.-Head-Change                         Max.-Flux-Residual
  Residual-Control   Outer-Iter.   Inner-Iter.     Column Row Layer    Maximum-Head-Change  Column Row Layer    Maximum-Flux-Residual          L2-NORM 
          0                 1           2             6   13     1       0.7280099730E-02       6   13    1         0.3879188834E+00      0.1163171568E+01
          0                 2           2             8    2     1       0.1722078377E-02       8    2    1         0.4473050424E-01      0.2581482369E+00
          0                 3           2             8    2     1       0.7738277528E-03       8    2    1         0.2009998498E-01      0.9344487801E-01
          0                 4           2             8    2     1       0.3477242675E-03       8    2    1         0.9032064097E-02      0.4030860512E-01
          0                 5           2             8    2     1       0.1562517773E-03       8    2    1         0.4058612486E-02      0.1792967554E-01
          0                 6           1             8    2     1       0.7021245465E-04       8    2    1         0.1823758880E-02      0.8013297842E-02
          0                 7           1             8    2     1       0.3155022955E-04       8    2    1         0.8195141649E-03      0.3584427480E-02
          0                 8           1             8    2     1       0.1417718583E-04       8    2    1         0.3682516340E-03      0.1603758597E-02
          0                 9           1             8    2     1       0.6370545870E-05       8    2    1         0.1654748643E-03      0.7176730671E-03

    ------------------------------------------------
       NWT REQUIRED            9 OUTER ITERATIONS 
       AND A TOTAL OF         14 INNER ITERATIONS.
    ------------------------------------------------

 NO OUTPUT CONTROL FOR STRESS PERIOD   24   TIME STEP   11
 
 SOLVING FOR HEAD 
                                                   Max.-Head-Change                         Max.-Flux-Residual
  Residual-Control   Outer-Iter.   Inner-Iter.     Column Row Layer    Maximum-Head-Change  Column Row Layer    Maximum-Flux-Residual          L2-NORM 
          0                 1           2             6   13     1       0.7109295612E-02       6   13    1         0.3788565902E+00      0.1153430245E+01
          0                 2           2             8    2     1       0.1721090172E-02       8    2    1         0.4470486920E-01      0.2574467040E+00
          0                 3           2             8    2     1       0.7733830006E-03       8    2    1         0.2008844738E-01      0.9334572658E-01
          0                 4           2             8    2     1       0.3475241076E-03       8    2    1         0.9026871510E-02      0.4027177702E-01
          0                 5           2             8    2     1       0.1561616986E-03       8    2    1         0.4056275591E-02      0.1791284899E-01
          0                 6           1             8    2     1       0.7017191690E-04       8    2    1         0.1822707199E-02      0.8005469451E-02
          0                 7           1             8    2     1       0.3153198720E-04       8    2    1         0.8190408884E-03      0.3580798761E-02
          0                 8           1             8    2     1       0.1416897694E-04       8    2    1         0.3680386565E-03      0.1602084018E-02
          0                 9           1             8    2     1       0.6366851730E-05       8    2    1         0.1653790230E-03      0.7168985274E-03

    ------------------------------------------------
       NWT REQUIRED            9 OUTER ITERATIONS 
       AND A TOTAL OF         14 INNER ITERATIONS.
    ------------------------------------------------

 NO OUTPUT CONTROL FOR STRESS PERIOD   24   TIME STEP   12
 
 SOLVING FOR HEAD 
                                                   Max.-Head-Change                         Max.-Flux-Residual
  Residual-Control   Outer-Iter.   Inner-Iter.     Column Row Layer    Maximum-Head-Change  Column Row Layer    Maximum-Flux-Residual          L2-NORM 
          0                 1           2             6   13     1       0.6942135783E-02       6   13    1         0.3699795466E+00      0.1144405550E+01
          0                 2           2             8    2     1       0.1720102009E-02       8    2    1         0.4467923421E-01      0.2567068078E+00
          0                 3           2             8    2     1       0.7729382894E-03       8    2    1         0.2007691037E-01      0.9319741108E-01
          0                 4           2             8    2     1       0.3473239758E-03       8    2    1         0.9021679434E-02      0.4021332280E-01
          0                 5           2             8    2     1       0.1560716368E-03       8    2    1         0.4053939035E-02      0.1788735402E-01
          0                 6           1             8    2     1       0.7013138866E-04       8    2    1         0.1821655721E-02      0.7994203232E-02
          0                 7           1             8    2     1       0.3151375010E-04       8    2    1         0.8185677250E-03      0.3575806270E-02
          0                 8           1             8    2     1       0.1416077029E-04       8    2    1         0.3678257359E-03      0.1599869123E-02
          0                 9           1             8    2     1       0.6363159341E-05       8    2    1         0.1652832186E-03      0.7159146472E-03

    ------------------------------------------------
       NWT REQUIRED            9 OUTER ITERATIONS 
       AND A TOTAL OF         14 INNER ITERATIONS.
    ------------------------------------------------

 NO OUTPUT CONTROL FOR STRESS PERIOD   24   TIME STEP   13
 
 SOLVING FOR HEAD 
                                                   Max.-Head-Change                         Max.-Flux-Residual
  Residual-Control   Outer-Iter.   Inner-Iter.     Column Row Layer    Maximum-Head-Change  Column Row Layer    Maximum-Flux-Residual          L2-NORM 
          0                 1           2             6   13     1       0.6778669167E-02       6   13    1         0.3612913627E+00      0.1136069888E+01
          0                 2           2             8    2     1       0.1719113586E-02       8    2    1         0.4465359589E-01      0.2560847803E+00
          0                 3           2             8    2     1       0.7724933894E-03       8    2    1         0.2006537000E-01      0.9309382541E-01
          0                 4           2             8    2     1       0.3471237276E-03       8    2    1         0.9016485014E-02      0.4017432959E-01
          0                 5           2             8    2     1       0.1559815078E-03       8    2    1         0.4051601047E-02      0.1787031492E-01
          0                 6           1             8    2     1       0.7009082390E-04       8    2    1         0.1820603435E-02      0.7986605372E-02
          0                 7           1             8    2     1       0.3149549350E-04       8    2    1         0.8180941239E-03      0.3572403225E-02
          0                 8           1             8    2     1       0.1415255440E-04       8    2    1         0.3676125928E-03      0.1598342373E-02
          0                 9           1             8    2     1       0.6359461699E-05       8    2    1         0.1651872914E-03      0.7152289793E-03

    ------------------------------------------------
       NWT REQUIRED            9 OUTER ITERATIONS 
       AND A TOTAL OF         14 INNER ITERATIONS.
    ------------------------------------------------

 NO OUTPUT CONTROL FOR STRESS PERIOD   24   TIME STEP   14
 
 SOLVING FOR HEAD 
                                                   Max.-Head-Change                         Max.-Flux-Residual
  Residual-Control   Outer-Iter.   Inner-Iter.     Column Row Layer    Maximum-Head-Change  Column Row Layer    Maximum-Flux-Residual          L2-NORM 
          0                 1           2             6   13     1       0.6618819092E-02       6   13    1         0.3527891624E+00      0.1128389614E+01
          0                 2           2             8    2     1       0.1718125399E-02       8    2    1         0.4462795829E-01      0.2555316907E+00
          0                 3           2             8    2     1       0.7720487084E-03       8    2    1         0.2005383291E-01      0.9300280782E-01
          0                 4           2             8    2     1       0.3469236281E-03       8    2    1         0.9011293396E-02      0.4013922992E-01
          0                 5           2             8    2     1       0.1558914683E-03       8    2    1         0.4049264912E-02      0.1785472676E-01
          0                 6           1             8    2     1       0.7005030991E-04       8    2    1         0.1819552246E-02      0.7979573664E-02
          0                 7           1             8    2     1       0.3147726440E-04       8    2    1         0.8176211309E-03      0.3569225388E-02
          0                 8           1             8    2     1       0.1414435175E-04       8    2    1         0.3673997645E-03      0.1596906250E-02
          0                 9           1             8    2     1       0.6355771311E-05       8    2    1         0.1650915341E-03      0.7145805205E-03

    ------------------------------------------------
       NWT REQUIRED            9 OUTER ITERATIONS 
       AND A TOTAL OF         14 INNER ITERATIONS.
    ------------------------------------------------

 NO OUTPUT CONTROL FOR STRESS PERIOD   24   TIME STEP   15
 
 SOLVING FOR HEAD 
                                                   Max.-Head-Change                         Max.-Flux-Residual
  Residual-Control   Outer-Iter.   Inner-Iter.     Column Row Layer    Maximum-Head-Change  Column Row Layer    Maximum-Flux-Residual          L2-NORM 
          0                 1           2             6   13     1       0.6462603754E-02       6   13    1         0.3444746316E+00      0.1120817045E+01
          0                 2           2             8    2     1       0.1717137334E-02       8    2    1         0.4460232463E-01      0.2549501204E+00
          0                 3           2             8    2     1       0.7716040663E-03       8    2    1         0.2004229718E-01      0.9290658741E-01
          0                 4           2             8    2     1       0.3467235382E-03       8    2    1         0.9006102190E-02      0.4010346481E-01
          0                 5           2             8    2     1       0.1558014301E-03       8    2    1         0.4046928871E-02      0.1783900651E-01
          0                 6           1             8    2     1       0.7000979418E-04       8    2    1         0.1818501048E-02      0.7972495810E-02
          0                 7           1             8    2     1       0.3145903331E-04       8    2    1         0.8171481147E-03      0.3566028064E-02
          0                 8           1             8    2     1       0.1413614861E-04       8    2    1         0.3671869244E-03      0.1595461366E-02
          0                 9           1             8    2     1       0.6352080422E-05       8    2    1         0.1649957670E-03      0.7139276646E-03

    ------------------------------------------------
       NWT REQUIRED            9 OUTER ITERATIONS 
       AND A TOTAL OF         14 INNER ITERATIONS.
    ------------------------------------------------

 NO OUTPUT CONTROL FOR STRESS PERIOD   24   TIME STEP   16
 
 SOLVING FOR HEAD 
                                                   Max.-Head-Change                         Max.-Flux-Residual
  Residual-Control   Outer-Iter.   Inner-Iter.     Column Row Layer    Maximum-Head-Change  Column Row Layer    Maximum-Flux-Residual          L2-NORM 
          0                 1           2             6   13     1       0.6310231310E-02       6   13    1         0.3363599919E+00      0.1114100982E+01
          0                 2           2             8    2     1       0.1716149380E-02       8    2    1         0.4457669404E-01      0.2544615037E+00
          0                 3           2             8    2     1       0.7711594699E-03       8    2    1         0.2003076273E-01      0.9281893619E-01
          0                 4           2             8    2     1       0.3465234676E-03       8    2    1         0.9000911510E-02      0.4006874340E-01
          0                 5           2             8    2     1       0.1557113989E-03       8    2    1         0.4044593043E-02      0.1782353338E-01
          0                 6           1             8    2     1       0.6996928194E-04       8    2    1         0.1817449944E-02      0.7965514131E-02
          0                 7           1             8    2     1       0.3144080372E-04       8    2    1         0.8166751356E-03      0.3562872314E-02
          0                 8           1             8    2     1       0.1412794622E-04       8    2    1         0.3669740991E-03      0.1594035340E-02
          0                 9           1             8    2     1       0.6348389533E-05       8    2    1         0.1648999994E-03      0.7132834362E-03

    ------------------------------------------------
       NWT REQUIRED            9 OUTER ITERATIONS 
       AND A TOTAL OF         14 INNER ITERATIONS.
    ------------------------------------------------

 NO OUTPUT CONTROL FOR STRESS PERIOD   24   TIME STEP   17
 
 SOLVING FOR HEAD 
                                                   Max.-Head-Change                         Max.-Flux-Residual
  Residual-Control   Outer-Iter.   Inner-Iter.     Column Row Layer    Maximum-Head-Change  Column Row Layer    Maximum-Flux-Residual          L2-NORM 
          0                 1           2             6   13     1       0.6161470700E-02       6   13    1         0.3284333548E+00      0.1107408053E+01
          0                 2           2             8    2     1       0.1715109282E-02       8    2    1         0.4454970525E-01      0.2539319621E+00
          0                 3           2             8    2     1       0.7706915219E-03       8    2    1         0.2001862003E-01      0.9272636531E-01
          0                 4           2             8    2     1       0.3463129387E-03       8    2    1         0.8995448440E-02      0.4003377205E-01
          0                 5           2             8    2     1       0.1556166846E-03       8    2    1         0.4042135232E-02      0.1780811171E-01
          0                 6           1             8    2     1       0.6992667227E-04       8    2    1         0.1816344210E-02      0.7958567751E-02
          0                 7           1             8    2     1       0.3142163496E-04       8    2    1         0.8161776869E-03      0.3559735308E-02
          0                 8           1             8    2     1       0.1411932264E-04       8    2    1         0.3667503085E-03      0.1592618861E-02
          0                 9           1             8    2     1       0.6344510061E-05       8    2    1         0.1647993258E-03      0.7126455817E-03

    ------------------------------------------------
       NWT REQUIRED            9 OUTER ITERATIONS 
       AND A TOTAL OF         14 INNER ITERATIONS.
    ------------------------------------------------

 NO OUTPUT CONTROL FOR STRESS PERIOD   24   TIME STEP   18
 
 SOLVING FOR HEAD 
                                                   Max.-Head-Change                         Max.-Flux-Residual
  Residual-Control   Outer-Iter.   Inner-Iter.     Column Row Layer    Maximum-Head-Change  Column Row Layer    Maximum-Flux-Residual          L2-NORM 
          0                 1           2             6   13     1       0.6016401383E-02       6   13    1         0.3206997721E+00      0.1101318998E+01
          0                 2           2             8    2     1       0.1714122205E-02       8    2    1         0.4452409469E-01      0.2534626273E+00
          0                 3           2             8    2     1       0.7702473699E-03       8    2    1         0.2000709607E-01      0.9263005652E-01
          0                 4           2             8    2     1       0.3461130832E-03       8    2    1         0.8990263044E-02      0.3999230917E-01
          0                 5           2             8    2     1       0.1555267539E-03       8    2    1         0.4039801957E-02      0.1778857483E-01
          0                 6           1             8    2     1       0.6988620330E-04       8    2    1         0.1815294276E-02      0.7949359664E-02
          0                 7           1             8    2     1       0.3140342337E-04       8    2    1         0.8157052210E-03      0.3555426404E-02
          0                 8           1             8    2     1       0.1411112675E-04       8    2    1         0.3665376890E-03      0.1590615932E-02
          0                 9           1             8    2     1       0.6340821423E-05       8    2    1         0.1647036363E-03      0.7117183671E-03

    ------------------------------------------------
       NWT REQUIRED            9 OUTER ITERATIONS 
       AND A TOTAL OF         14 INNER ITERATIONS.
    ------------------------------------------------

 NO OUTPUT CONTROL FOR STRESS PERIOD   24   TIME STEP   19
 
 SOLVING FOR HEAD 
                                                   Max.-Head-Change                         Max.-Flux-Residual
  Residual-Control   Outer-Iter.   Inner-Iter.     Column Row Layer    Maximum-Head-Change  Column Row Layer    Maximum-Flux-Residual          L2-NORM 
          0                 1           2             6   13     1       0.5874908729E-02       6   13    1         0.3131578180E+00      0.1095254542E+01
          0                 2           2             8    2     1       0.1713134994E-02       8    2    1         0.4449848782E-01      0.2528373896E+00
          0                 3           2             8    2     1       0.7698029526E-03       8    2    1         0.1999556986E-01      0.9245332850E-01
          0                 4           2             8    2     1       0.3459129906E-03       8    2    1         0.8985074094E-02      0.3991798591E-01
          0                 5           2             8    2     1       0.1554366537E-03       8    2    1         0.4037465649E-02      0.1775617283E-01
          0                 6           1             8    2     1       0.6984562729E-04       8    2    1         0.1814242231E-02      0.7935177194E-02
          0                 7           1             8    2     1       0.3138514801E-04       8    2    1         0.8152314285E-03      0.3549210297E-02
          0                 8           1             8    2     1       0.1410289510E-04       8    2    1         0.3663242940E-03      0.1587889029E-02
          0                 9           1             8    2     1       0.6337112777E-05       8    2    1         0.1646075109E-03      0.7105201722E-03

    ------------------------------------------------
       NWT REQUIRED            9 OUTER ITERATIONS 
       AND A TOTAL OF         14 INNER ITERATIONS.
    ------------------------------------------------

 NO OUTPUT CONTROL FOR STRESS PERIOD   24   TIME STEP   20
 
 SOLVING FOR HEAD 
                                                   Max.-Head-Change                         Max.-Flux-Residual
  Residual-Control   Outer-Iter.   Inner-Iter.     Column Row Layer    Maximum-Head-Change  Column Row Layer    Maximum-Flux-Residual          L2-NORM 
          0                 1           2             6   13     1       0.5736800540E-02       6   13    1         0.3057921299E+00      0.1089701256E+01
          0                 2           2             8    2     1       0.1712147460E-02       8    2    1         0.4447287229E-01      0.2523724743E+00
          0                 3           2             8    2     1       0.7693584575E-03       8    2    1         0.1998403988E-01      0.9235663768E-01
          0                 4           2             8    2     1       0.3457129273E-03       8    2    1         0.8979884419E-02      0.3987941270E-01
          0                 5           2             8    2     1       0.1553466089E-03       8    2    1         0.4035129827E-02      0.1773909894E-01
          0                 6           1             8    2     1       0.6980510155E-04       8    2    1         0.1813190937E-02      0.7927517674E-02
          0                 7           1             8    2     1       0.3136690916E-04       8    2    1         0.8147582769E-03      0.3545767309E-02
          0                 8           1             8    2     1       0.1409468695E-04       8    2    1         0.3661113533E-03      0.1586342767E-02
          0                 9           1             8    2     1       0.6333419137E-05       8    2    1         0.1645116793E-03      0.7098320530E-03

    ------------------------------------------------
       NWT REQUIRED            9 OUTER ITERATIONS 
       AND A TOTAL OF         14 INNER ITERATIONS.
    ------------------------------------------------

 NO OUTPUT CONTROL FOR STRESS PERIOD   24   TIME STEP   21
 
 SOLVING FOR HEAD 
                                                   Max.-Head-Change                         Max.-Flux-Residual
  Residual-Control   Outer-Iter.   Inner-Iter.     Column Row Layer    Maximum-Head-Change  Column Row Layer    Maximum-Flux-Residual          L2-NORM 
          0                 1           2             6   13     1       0.5602317409E-02       6   13    1         0.2986144706E+00      0.1084185729E+01
          0                 2           2             8    2     1       0.1711107687E-02       8    2    1         0.4444589327E-01      0.2518967858E+00
          0                 3           2             8    2     1       0.7688906283E-03       8    2    1         0.1997190084E-01      0.9225652703E-01
          0                 4           2             8    2     1       0.3455024398E-03       8    2    1         0.8974422676E-02      0.3983837163E-01
          0                 5           2             8    2     1       0.1552519079E-03       8    2    1         0.4032672472E-02      0.1772047622E-01
          0                 6           1             8    2     1       0.6976249488E-04       8    2    1         0.1812085343E-02      0.7918980552E-02
          0                 7           1             8    2     1       0.3134774115E-04       8    2    1         0.8142608729E-03      0.3541854579E-02
          0                 8           1             8    2     1       0.1408606313E-04       8    2    1         0.3658875701E-03      0.1584550189E-02
          0                 9           1             8    2     1       0.6329539414E-05       8    2    1         0.1644110049E-03      0.7090072262E-03

    ------------------------------------------------
       NWT REQUIRED            9 OUTER ITERATIONS 
       AND A TOTAL OF         14 INNER ITERATIONS.
    ------------------------------------------------

 NO OUTPUT CONTROL FOR STRESS PERIOD   24   TIME STEP   22
 
 SOLVING FOR HEAD 
                                                   Max.-Head-Change                         Max.-Flux-Residual
  Residual-Control   Outer-Iter.   Inner-Iter.     Column Row Layer    Maximum-Head-Change  Column Row Layer    Maximum-Flux-Residual          L2-NORM 
          0                 1           2             6   13     1       0.5471227890E-02       6   13    1         0.2916160098E+00      0.1078900656E+01
          0                 2           2             8    2     1       0.1710120670E-02       8    2    1         0.4442028761E-01      0.2514363216E+00
          0                 3           2             8    2     1       0.7684464406E-03       8    2    1         0.1996037726E-01      0.9214975127E-01
          0                 4           2             8    2     1       0.3453025473E-03       8    2    1         0.8969236742E-02      0.3979333513E-01
          0                 5           2             8    2     1       0.1551619552E-03       8    2    1         0.4030338719E-02      0.1769998700E-01
          0                 6           1             8    2     1       0.6972201666E-04       8    2    1         0.1811035141E-02      0.7909628483E-02
          0                 7           1             8    2     1       0.3132952631E-04       8    2    1         0.8137882864E-03      0.3537600268E-02
          0                 8           1             8    2     1       0.1407786724E-04       8    2    1         0.3656749171E-03      0.1582621045E-02
          0                 9           1             8    2     1       0.6325851527E-05       8    2    1         0.1643153153E-03      0.7081344278E-03

    ------------------------------------------------
       NWT REQUIRED            9 OUTER ITERATIONS 
       AND A TOTAL OF         14 INNER ITERATIONS.
    ------------------------------------------------

 NO OUTPUT CONTROL FOR STRESS PERIOD   24   TIME STEP   23
 
 SOLVING FOR HEAD 
                                                   Max.-Head-Change                         Max.-Flux-Residual
  Residual-Control   Outer-Iter.   Inner-Iter.     Column Row Layer    Maximum-Head-Change  Column Row Layer    Maximum-Flux-Residual          L2-NORM 
          0                 1           2             6   13     1       0.5343682859E-02       6   13    1         0.2848049086E+00      0.1074087234E+01
          0                 2           2             8    2     1       0.1709081296E-02       8    2    1         0.4439331984E-01      0.2510713465E+00
          0                 3           2             8    2     1       0.7679787715E-03       8    2    1         0.1994824279E-01      0.9208444859E-01
          0                 4           2             8    2     1       0.3450921234E-03       8    2    1         0.8963776826E-02      0.3976595135E-01
          0                 5           2             8    2     1       0.1550672789E-03       8    2    1         0.4027882084E-02      0.1768688187E-01
          0                 6           1             8    2     1       0.6967941975E-04       8    2    1         0.1809929827E-02      0.7903377214E-02
          0                 7           1             8    2     1       0.3131036130E-04       8    2    1         0.8132909819E-03      0.3534658022E-02
          0                 8           1             8    2     1       0.1406924491E-04       8    2    1         0.3654511762E-03      0.1581251224E-02
          0                 9           1             8    2     1       0.6321972555E-05       8    2    1         0.1642146565E-03      0.7075018119E-03

    ------------------------------------------------
       NWT REQUIRED            9 OUTER ITERATIONS 
       AND A TOTAL OF         14 INNER ITERATIONS.
    ------------------------------------------------

 NO OUTPUT CONTROL FOR STRESS PERIOD   24   TIME STEP   24
 
 SOLVING FOR HEAD 
                                                   Max.-Head-Change                         Max.-Flux-Residual
  Residual-Control   Outer-Iter.   Inner-Iter.     Column Row Layer    Maximum-Head-Change  Column Row Layer    Maximum-Flux-Residual          L2-NORM 
          0                 1           2             6   13     1       0.5219509322E-02       6   13    1         0.2781722208E+00      0.1069285598E+01
          0                 2           2             8    2     1       0.1708094710E-02       8    2    1         0.4436772518E-01      0.2506291457E+00
          0                 3           2             8    2     1       0.7675347809E-03       8    2    1         0.1993672425E-01      0.9198189477E-01
          0                 4           2             8    2     1       0.3448923209E-03       8    2    1         0.8958593200E-02      0.3972459972E-01
          0                 5           2             8    2     1       0.1549773670E-03       8    2    1         0.4025549383E-02      0.1766873741E-01
          0                 6           1             8    2     1       0.6963895978E-04       8    2    1         0.1808880109E-02      0.7895317106E-02
          0                 7           1             8    2     1       0.3129215522E-04       8    2    1         0.8128186236E-03      0.3531069133E-02
          0                 8           1             8    2     1       0.1406105277E-04       8    2    1         0.3652386264E-03      0.1579646384E-02
          0                 9           1             8    2     1       0.6318286418E-05       8    2    1         0.1641190142E-03      0.7068058232E-03

    ------------------------------------------------
       NWT REQUIRED            9 OUTER ITERATIONS 
       AND A TOTAL OF         14 INNER ITERATIONS.
    ------------------------------------------------

 NO OUTPUT CONTROL FOR STRESS PERIOD   24   TIME STEP   25
 
 SOLVING FOR HEAD 
                                                   Max.-Head-Change                         Max.-Flux-Residual
  Residual-Control   Outer-Iter.   Inner-Iter.     Column Row Layer    Maximum-Head-Change  Column Row Layer    Maximum-Flux-Residual          L2-NORM 
          0                 1           2             6   13     1       0.5098628187E-02       6   13    1         0.2717140228E+00      0.1065054659E+01
          0                 2           2             8    2     1       0.1707056054E-02       8    2    1         0.4434077257E-01      0.2502597453E+00
          0                 3           2             8    2     1       0.7670675071E-03       8    2    1         0.1992459850E-01      0.9189300640E-01
          0                 4           2             8    2     1       0.3446821071E-03       8    2    1         0.8953138055E-02      0.3968752729E-01
          0                 5           2             8    2     1       0.1548827998E-03       8    2    1         0.4023095271E-02      0.1765218101E-01
          0                 6           1             8    2     1       0.6959641840E-04       8    2    1         0.1807776095E-02      0.7887860900E-02
          0                 7           1             8    2     1       0.3127301797E-04       8    2    1         0.8123219759E-03      0.3527703656E-02
          0                 8           1             8    2     1       0.1405244395E-04       8    2    1         0.3650152097E-03      0.1578131321E-02
          0                 9           1             8    2     1       0.6314413949E-05       8    2    1         0.1640185150E-03      0.7061012789E-03

    ------------------------------------------------
       NWT REQUIRED            9 OUTER ITERATIONS 
       AND A TOTAL OF         14 INNER ITERATIONS.
    ------------------------------------------------

 NO OUTPUT CONTROL FOR STRESS PERIOD   24   TIME STEP   26
 
 SOLVING FOR HEAD 
                                                   Max.-Head-Change                         Max.-Flux-Residual
  Residual-Control   Outer-Iter.   Inner-Iter.     Column Row Layer    Maximum-Head-Change  Column Row Layer    Maximum-Flux-Residual          L2-NORM 
          0                 1           2             6   13     1       0.4980975017E-02       6   13    1         0.2654272222E+00      0.1060704880E+01
          0                 2           2             8    2     1       0.1706070308E-02       8    2    1         0.4431519806E-01      0.2498505257E+00
          0                 3           2             8    2     1       0.7666239300E-03       8    2    1         0.1991308996E-01      0.9180043600E-01
          0                 4           2             8    2     1       0.3444825060E-03       8    2    1         0.8947959333E-02      0.3965068456E-01
          0                 5           2             8    2     1       0.1547929849E-03       8    2    1         0.4020764955E-02      0.1763591784E-01
          0                 6           1             8    2     1       0.6955600545E-04       8    2    1         0.1806727529E-02      0.7880558037E-02
          0                 7           1             8    2     1       0.3125483440E-04       8    2    1         0.8118501651E-03      0.3524423215E-02
          0                 8           1             8    2     1       0.1404426232E-04       8    2    1         0.3648029182E-03      0.1576673559E-02
          0                 9           1             8    2     1       0.6310732564E-05       8    2    1         0.1639229944E-03      0.7054315532E-03

    ------------------------------------------------
       NWT REQUIRED            9 OUTER ITERATIONS 
       AND A TOTAL OF         14 INNER ITERATIONS.
    ------------------------------------------------

 NO OUTPUT CONTROL FOR STRESS PERIOD   24   TIME STEP   27
 
 SOLVING FOR HEAD 
                                                   Max.-Head-Change                         Max.-Flux-Residual
  Residual-Control   Outer-Iter.   Inner-Iter.     Column Row Layer    Maximum-Head-Change  Column Row Layer    Maximum-Flux-Residual          L2-NORM 
          0                 1           2             6   13     1       0.4866467401E-02       6   13    1         0.2593075767E+00      0.1056534056E+01
          0                 2           2             8    2     1       0.1705032469E-02       8    2    1         0.4428826665E-01      0.2494487558E+00
          0                 3           2             8    2     1       0.7661570232E-03       8    2    1         0.1990097374E-01      0.9170882868E-01
          0                 4           2             8    2     1       0.3442724565E-03       8    2    1         0.8942508465E-02      0.3961408369E-01
          0                 5           2             8    2     1       0.1546984912E-03       8    2    1         0.4018312763E-02      0.1761968249E-01
          0                 6           1             8    2     1       0.6951349683E-04       8    2    1         0.1805624379E-02      0.7873244181E-02
          0                 7           1             8    2     1       0.3123571191E-04       8    2    1         0.8113539085E-03      0.3521110964E-02
          0                 8           1             8    2     1       0.1403566025E-04       8    2    1         0.3645796796E-03      0.1575156551E-02
          0                 9           1             8    2     1       0.6306863097E-05       8    2    1         0.1638225741E-03      0.7047590417E-03

    ------------------------------------------------
       NWT REQUIRED            9 OUTER ITERATIONS 
       AND A TOTAL OF         14 INNER ITERATIONS.
    ------------------------------------------------

 NO OUTPUT CONTROL FOR STRESS PERIOD   24   TIME STEP   28
 
 SOLVING FOR HEAD 
                                                   Max.-Head-Change                         Max.-Flux-Residual
  Residual-Control   Outer-Iter.   Inner-Iter.     Column Row Layer    Maximum-Head-Change  Column Row Layer    Maximum-Flux-Residual          L2-NORM 
          0                 1           2             6   13     1       0.4755135289E-02       6   13    1         0.2533567538E+00      0.1069272247E+01
          0                 2           2             8    2     1       0.1704046674E-02       8    2    1         0.4426270693E-01      0.2505536809E+00
          0                 3           2             8    2     1       0.7657128570E-03       8    2    1         0.1988946302E-01      0.9155010125E-01
          0                 4           2             8    2     1       0.3440721938E-03       8    2    1         0.8937321550E-02      0.3948182958E-01
          0                 5           2             8    2     1       0.1546081273E-03       8    2    1         0.4015973815E-02      0.1755136553E-01
          0                 6           1             8    2     1       0.6947268771E-04       8    2    1         0.1804568840E-02      0.7839868311E-02
          0                 7           1             8    2     1       0.3121726472E-04       8    2    1         0.8108771388E-03      0.3505067059E-02
          0                 8           1             8    2     1       0.1402731329E-04       8    2    1         0.3643641302E-03      0.1567519241E-02
          0                 9           1             8    2     1       0.6303082668E-05       8    2    1         0.1637250290E-03      0.7011511767E-03

    ------------------------------------------------
       NWT REQUIRED            9 OUTER ITERATIONS 
       AND A TOTAL OF         14 INNER ITERATIONS.
    ------------------------------------------------

 NO OUTPUT CONTROL FOR STRESS PERIOD   24   TIME STEP   29
 
 SOLVING FOR HEAD 
                                                   Max.-Head-Change                         Max.-Flux-Residual
  Residual-Control   Outer-Iter.   Inner-Iter.     Column Row Layer    Maximum-Head-Change  Column Row Layer    Maximum-Flux-Residual          L2-NORM 
          0                 1           2             6   13     1       0.4654651065E-02       6   13    1         0.2479577770E+00      0.1076666549E+01
          0                 2           2             8    2     1       0.1703005009E-02       8    2    1         0.4423572699E-01      0.2508830148E+00
          0                 3           2             8    2     1       0.7652428360E-03       8    2    1         0.1987729705E-01      0.9128469954E-01
          0                 4           2             8    2     1       0.3438599478E-03       8    2    1         0.8931831220E-02      0.3933507880E-01
          0                 5           2             8    2     1       0.1545122155E-03       8    2    1         0.4013494234E-02      0.1748522191E-01
          0                 6           1             8    2     1       0.6942931596E-04       8    2    1         0.1803448185E-02      0.7810768882E-02
          0                 7           1             8    2     1       0.3119763926E-04       8    2    1         0.8103703129E-03      0.3492303999E-02
          0                 8           1             8    2     1       0.1401842760E-04       8    2    1         0.3641347693E-03      0.1561922742E-02
          0                 9           1             8    2     1       0.6299056881E-05       8    2    1         0.1636211675E-03      0.6986967782E-03

    ------------------------------------------------
       NWT REQUIRED            9 OUTER ITERATIONS 
       AND A TOTAL OF         14 INNER ITERATIONS.
    ------------------------------------------------

 NO OUTPUT CONTROL FOR STRESS PERIOD   24   TIME STEP   30



 STREAM LISTING     PERIOD     24   STEP       30

 LAYER ROW COL. STREAM  RCH.  FLOW INTO     FLOW TO   FLOW OUT OF   OVRLND.     DIRECT     STREAM       STREAM     STREAM     STREAM   STREAMBED  STREAMBED
                SEG.NO.  NO.  STRM. RCH.    AQUIFER    STRM. RCH.    RUNOFF     PRECIP       ET          HEAD       DEPTH      WIDTH   CONDCTNC.   GRADIENT

   1    1    1     1     1    3.5000E+00  8.3255E-02   3.4167E+00  0.000E+00  0.000E+00  0.000E+00  1.09371E+03  6.654E-01  5.047E+00  2.271E-02  1.222E+00
   1    2    2     1     2    3.4167E+00  1.2792E-01   3.2888E+00  0.000E+00  0.000E+00  0.000E+00  1.08872E+03  6.583E-01  4.995E+00  3.497E-02  1.219E+00
   1    3    3     1     3    3.2888E+00  1.0809E-01   3.1807E+00  0.000E+00  0.000E+00  0.000E+00  1.08307E+03  6.502E-01  4.935E+00  2.961E-02  1.217E+00
   1    3    4     1     4    3.1807E+00  9.8702E-02   3.0820E+00  0.000E+00  0.000E+00  0.000E+00  1.07805E+03  6.428E-01  4.882E+00  2.709E-02  1.214E+00
   1    4    5     2     1    1.0820E+00  2.4731E-01   8.3473E-01  0.000E+00  0.000E+00  0.000E+00  1.07210E+03  1.706E-01  1.200E+01  7.800E-02  1.057E+00
   1    5    6     2     2    8.3473E-01  1.8877E-01   6.4596E-01  0.000E+00  0.000E+00  0.000E+00  1.06666E+03  1.462E-01  1.200E+01  6.000E-02  1.049E+00
   1    6    6     2     3    6.4596E-01  1.8736E-01   4.5860E-01  0.000E+00  0.000E+00  0.000E+00  1.06192E+03  1.226E-01  1.200E+01  6.000E-02  1.041E+00
   1    7    6     2     4    4.5860E-01  1.8574E-01   2.7286E-01  0.000E+00  0.000E+00  0.000E+00  1.05717E+03  9.573E-02  1.200E+01  6.000E-02  1.032E+00
   1    8    6     2     5    2.7286E-01  1.8377E-01   8.9092E-02  0.000E+00  0.000E+00  0.000E+00  1.05242E+03  6.276E-02  1.200E+01  6.000E-02  1.021E+00
   1    3    5     3     1    2.0000E+00  2.8252E-01   1.7175E+00  0.000E+00  0.000E+00  0.000E+00  1.07555E+03  1.909E+00  9.636E+00  7.227E-02  1.955E+00
   1    3    6     3     2    1.7175E+00  2.4905E-01   1.4684E+00  0.000E+00  0.000E+00  0.000E+00  1.07264E+03  1.727E+00  8.909E+00  6.682E-02  1.864E+00
   1    3    7     3     3    1.4684E+00  1.9718E-01   1.2712E+00  0.000E+00  0.000E+00  0.000E+00  1.06987E+03  1.555E+00  8.218E+00  5.547E-02  1.777E+00
   1    4    8     3     4    1.2712E+00  2.2567E-01   1.0456E+00  0.000E+00  0.000E+00  0.000E+00  1.06682E+03  1.364E+00  7.455E+00  6.709E-02  1.682E+00
   1    5    8     3     5    1.0456E+00  1.5790E-01   8.8768E-01  0.000E+00  0.000E+00  0.000E+00  1.06362E+03  1.164E+00  6.655E+00  4.991E-02  1.582E+00
   1    6    8     3     6    8.8768E-01  5.5980E-02   8.3170E-01  0.000E+00  0.000E+00  0.000E+00  1.06158E+03  1.036E+00  6.145E+00  1.844E-02  1.518E+00
   1    5   10     4     1    1.0000E+01  9.0919E-02   9.9091E+00  0.000E+00  0.000E+00  0.000E+00  1.07836E+03  6.368E-01  1.000E+01  2.500E-02  1.212E+00
   1    5    9     4     2    9.9091E+00  1.8158E-01   9.7275E+00  0.000E+00  0.000E+00  0.000E+00  1.07154E+03  6.315E-01  1.000E+01  5.000E-02  1.211E+00
   1    6    8     4     3    9.7275E+00  1.2689E-01   9.6006E+00  0.000E+00  0.000E+00  0.000E+00  1.06381E+03  6.256E-01  1.000E+01  3.500E-02  1.209E+00
   1    6    8     5     1    1.0432E+01  2.2686E-01   1.0205E+01  0.000E+00  0.000E+00  0.000E+00  1.05868E+03  6.790E-01  1.542E+01  6.166E-02  1.226E+00
   1    7    7     5     2    1.0205E+01  2.7894E-01   9.9265E+00  0.000E+00  0.000E+00  0.000E+00  1.05417E+03  6.732E-01  1.519E+01  7.594E-02  1.224E+00
   1    8    7     5     3    9.9265E+00  1.9221E-01   9.7343E+00  0.000E+00  0.000E+00  0.000E+00  1.04992E+03  6.676E-01  1.497E+01  5.241E-02  1.223E+00
   1    8    6     5     4    9.7343E+00  1.3577E-01   9.5985E+00  0.000E+00  0.000E+00  0.000E+00  1.04691E+03  6.637E-01  1.482E+01  3.706E-02  1.221E+00
   1    9    6     6     1    9.6876E+00  2.2120E-01   9.4664E+00  0.000E+00  0.000E+00  0.000E+00  1.04341E+03  6.866E-01  1.200E+01  6.000E-02  1.229E+00
   1   10    7     6     2    9.4664E+00  2.2062E-01   9.2458E+00  0.000E+00  0.000E+00  0.000E+00  1.03886E+03  6.771E-01  1.200E+01  6.000E-02  1.226E+00
   1   11    7     6     3    9.2458E+00  2.2005E-01   9.0258E+00  0.000E+00  0.000E+00  0.000E+00  1.03430E+03  6.674E-01  1.200E+01  6.000E-02  1.222E+00
   1   12    7     6     4    9.0258E+00  2.1947E-01   8.8063E+00  0.000E+00  0.000E+00  0.000E+00  1.02975E+03  6.578E-01  1.200E+01  6.000E-02  1.219E+00
   1   13    7     6     5    8.8063E+00 -1.9694E-01   9.0032E+00  0.000E+00  0.000E+00  0.000E+00  1.02657E+03  6.573E-01  1.200E+01  2.400E-01 -2.735E-01
   1   14    9     7     1    1.5000E+02  1.1859E+00   1.4881E+02  0.000E+00  0.000E+00  0.000E+00  1.03987E+03  2.288E+00  5.530E+01  5.593E-01  7.067E-01
   1   13    8     7     2    1.4881E+02  1.6482E+00   1.4717E+02  0.000E+00  0.000E+00  0.000E+00  1.03478E+03  2.281E+00  5.526E+01  6.148E-01  8.936E-01
   1   13    7     7     3    1.4717E+02  1.2876E+00   1.4588E+02  0.000E+00  0.000E+00  0.000E+00  1.02969E+03  2.273E+00  5.523E+01  5.586E-01  7.684E-01
   1   13    6     8     1    1.5488E+02  6.5840E-01   1.5422E+02  0.000E+00  0.000E+00  0.000E+00  1.02472E+03  2.849E+00  4.130E+01  4.209E-01  5.214E-01
   1   13    5     8     2    1.5422E+02 -4.0245E-01   1.5463E+02  0.000E+00  0.000E+00  0.000E+00  1.01847E+03  2.848E+00  4.129E+01  4.208E+00 -3.188E-02
   1   13    4     8     3    1.5463E+02 -3.4263E+00   1.5805E+02  0.000E+00  0.000E+00  0.000E+00  1.01224E+03  2.861E+00  4.148E+01  4.227E+00 -2.702E-01
   1   13    3     8     4    1.5805E+02 -4.2843E+00   1.6234E+02  0.000E+00  0.000E+00  0.000E+00  1.00601E+03  2.887E+00  4.186E+01  4.266E+00 -3.348E-01
   1   13    2     8     5    1.6234E+02 -2.8012E+00   1.6514E+02  0.000E+00  0.000E+00  0.000E+00  9.99786E+02  2.911E+00  4.221E+01  4.301E+00 -2.171E-01
   1   13    1     8     6    1.6514E+02 -2.0156E+00   1.6715E+02  0.000E+00  0.000E+00  0.000E+00  9.94802E+02  2.927E+00  4.244E+01  2.595E+00 -2.589E-01
   1    6    8     9     1    0.0000E+00  0.0000E+00   0.0000E+00  0.000E+00  0.000E+00  0.000E+00  1.07850E+03  0.000E+00  4.000E+00  0.000E+00  1.000E+00





UNSATURATED ZONE PACKAGE VOLUMETRIC BUDGET FOR  TIME STEP    30 STRESS PERIOD   24
  ------------------------------------------------------------------------------



     CUMULATIVE VOLUMES      L**3       RATES FOR THIS TIME STEP      L**3/T
     ------------------                 ------------------------

           IN:                                      IN:
           ---                                      ---
        INFILTRATION =    78356297.8346          INFILTRATION =       0.0000E+00

          OUT:                                     OUT:
          ----                                     ----
              UZF ET =   602766840.1707                UZF ET =           0.0025
        UZF RECHARGE =  1339132644.6069          UZF RECHARGE =          17.3233

            IN - OUT = -1863543186.9430              IN - OUT =         -17.3258

          STORAGE:                                 STORAGE:
          --------                                 --------
      STORAGE CHANGE = -1863517433.7033        STORAGE CHANGE =         -17.3258

 PERCENT DISCREPANCY IS DIFFERENCE BETWEEN IN-OUT MINUS CHANGE IN STORAGE
 DIVIDED BY THE AVERAGE OF IN AND OUT TIMES 100

 PERCENT DISCREPANCY =          -0.00     PERCENT DISCREPANCY =           0.00






1
  VOLUMETRIC BUDGET FOR ENTIRE MODEL AT END OF TIME STEP   30, STRESS PERIOD  24
  ------------------------------------------------------------------------------

     CUMULATIVE VOLUMES      L**3       RATES FOR THIS TIME STEP      L**3/T
     ------------------                 ------------------------

           IN:                                      IN:
           ---                                      ---
             STORAGE     =    80227416.0000               STORAGE     =           0.1642
       CONSTANT HEAD     =           0.0000         CONSTANT HEAD     =           0.0000
               WELLS     =           0.0000                 WELLS     =           0.0000
     HEAD DEP BOUNDS     =    16652099.0000       HEAD DEP BOUNDS     =           0.2756
      STREAM LEAKAGE     =   664889792.0000        STREAM LEAKAGE     =           9.4738
        UZF RECHARGE     =  1339133696.0000          UZF RECHARGE     =          17.3233
               GW ET     =           0.0000                 GW ET     =           0.0000
     SURFACE LEAKAGE     =           0.0000       SURFACE LEAKAGE     =           0.0000
    SUPPLEMENTARY WELLS  =           0.0000      SUPPLEMENTARY WELLS  =           0.0000

                TOTAL IN =  2100902912.0000                  TOTAL IN =          27.2369

          OUT:                                     OUT:
          ----                                     ----
             STORAGE     =  1250279808.0000               STORAGE     =          13.8027
       CONSTANT HEAD     =           0.0000         CONSTANT HEAD     =           0.0000
               WELLS     =           0.0000                 WELLS     =           0.0000
     HEAD DEP BOUNDS     =    17353532.0000       HEAD DEP BOUNDS     =           0.2880
      STREAM LEAKAGE     =   647876864.0000        STREAM LEAKAGE     =          13.1268
        UZF RECHARGE     =           0.0000          UZF RECHARGE     =           0.0000
               GW ET     =   182036864.0000                 GW ET     =       1.7500E-02
     SURFACE LEAKAGE     =           0.0000       SURFACE LEAKAGE     =           0.0000
    SUPPLEMENTARY WELLS  =     3166757.2500      SUPPLEMENTARY WELLS  =           0.0000

               TOTAL OUT =  2100713728.0000                 TOTAL OUT =          27.2349

                IN - OUT =      189184.0000                  IN - OUT =       1.9436E-03

     PERCENT DISCREPANCY =           0.01         PERCENT DISCREPANCY =           0.01






         TIME SUMMARY AT END OF TIME STEP   30 IN STRESS PERIOD   24
                    SECONDS     MINUTES      HOURS       DAYS        YEARS
                    -----------------------------------------------------------
   TIME STEP LENGTH  87600.      1460.0      24.333      1.0139     2.77588E-03
 STRESS PERIOD TIME 2.62800E+06  43800.      730.00      30.417     8.32763E-02
         TOTAL TIME 6.05304E+07 1.00884E+06  16814.      700.58      1.9181    
1
1
                            STRESS PERIOD NO.   25, LENGTH =   2628000.    
                            -----------------------------------------------

                              NUMBER OF TIME STEPS =    30

                               MULTIPLIER FOR DELT =     1.000

                            INITIAL TIME STEP SIZE =   87600.00    

 WELL NO.  LAYER   ROW   COL   STRESS RATE         
 --------------------------------------------------
      1      1      6      4       0.000    
      2      1      6      7       0.000    
      3      1      7      4       0.000    
      4      1      7      5       0.000    
      5      1      8      4       0.000    
      6      1      8      5       0.000    
      7      1      9      4       0.000    
      8      1      9      5       0.000    
      9      1     10      4       0.000    
     10      1     10      5       0.000    

     10 WELLS

 REUSING NON-PARAMETER GHB CELLS FROM LAST STRESS PERIOD

      2 GHB CELLS

 REUSING STREAM SEGMENT DATA FROM LAST STRESS PERIOD



            AREAL INFILTRATION RATE
 READING ON UNIT   19 WITH FORMAT: (10F4.0)            

            1           2           3           4           5           6           7           8           9          10
 ........................................................................................................................
   1    0.000       0.000       0.000       0.000       0.000       0.000       0.000       0.000       0.000       0.000    
   2    0.000       0.000       0.000       0.000       0.000       0.000       0.000       0.000       0.000       0.000    
   3    0.000       0.000       0.000       0.000       0.000       0.000       0.000       0.000       0.000       0.000    
   4    0.000       0.000       0.000       0.000       0.000       0.000       0.000       0.000       0.000       0.000    
   5    0.000       0.000       0.000       0.000       0.000       0.000       0.000       0.000       0.000       0.000    
   6    0.000       0.000       0.000       0.000       0.000       0.000       0.000       0.000       0.000       0.000    
   7    0.000       0.000       0.000       0.000       0.000       0.000       0.000       0.000       0.000       0.000    
   8    0.000       0.000       0.000       0.000       0.000       0.000       0.000       0.000       0.000       0.000    
   9    0.000       0.000       0.000       0.000       0.000       0.000       0.000       0.000       0.000       0.000    
  10    0.000       0.000       0.000       0.000       0.000       0.000       0.000       0.000       0.000       0.000    
  11    0.000       0.000       0.000       0.000       0.000       0.000       0.000       0.000       0.000       0.000    
  12    0.000       0.000       0.000       0.000       0.000       0.000       0.000       0.000       0.000       0.000    
  13    0.000       0.000       0.000       0.000       0.000       0.000       0.000       0.000       0.000       0.000    
  14    0.000       0.000       0.000       0.000       0.000       0.000       0.000       0.000       0.000       0.000    
  15    0.000       0.000       0.000       0.000       0.000       0.000       0.000       0.000       0.000       0.000    

                  ET RATE =  1.000000E-10

 USING ET EXTINCTION DEPTH FROM PREVIOUS STRESS PERIOD. CURRENT PERIOD IS:      25

 USING EXTINCTION WATER CONTENT FROM PREVIOUS STRESS PERIOD. CURRENT PERIOD IS:      25

 PROCESSING AGO STRESS PERIOD DATA

 READING AGO STRESS PERIOD DATA

 READING IRRIGATION STREAM

 READING IRRIGATION WELL

 READING SUPPLEMENTAL WEL

 END PROCESSING AGO STRESS PERIOD DATA OPTIONS
 
 SOLVING FOR HEAD 
                                                   Max.-Head-Change                         Max.-Flux-Residual
  Residual-Control   Outer-Iter.   Inner-Iter.     Column Row Layer    Maximum-Head-Change  Column Row Layer    Maximum-Flux-Residual          L2-NORM 
          0                 1           2             6   13     1       0.4549358152E-02       6   13    1         0.2423364150E+00      0.1071886878E+01
          0                 2           2             8    2     1       0.1702012011E-02       8    2    1         0.4421001238E-01      0.2503586781E+00
          0                 3           2             8    2     1       0.7647949757E-03       8    2    1         0.1986569903E-01      0.9114399719E-01
          0                 4           2             8    2     1       0.3436579602E-03       8    2    1         0.8926600321E-02      0.3927690194E-01
          0                 5           2             8    2     1       0.1544211205E-03       8    2    1         0.4011135081E-02      0.1745980802E-01
          0                 6           1             8    2     1       0.6938823397E-04       8    2    1         0.1802384231E-02      0.7799582113E-02
          0                 7           1             8    2     1       0.3117911278E-04       8    2    1         0.8098904969E-03      0.3487366511E-02
          0                 8           1             8    2     1       0.1401007314E-04       8    2    1         0.3639183895E-03      0.1559739428E-02
          0                 9           1             8    2     1       0.6295289708E-05       8    2    1         0.1635235928E-03      0.6977298773E-03

    ------------------------------------------------
       NWT REQUIRED            9 OUTER ITERATIONS 
       AND A TOTAL OF         14 INNER ITERATIONS.
    ------------------------------------------------

 NO OUTPUT CONTROL FOR STRESS PERIOD   25   TIME STEP    1
 
 SOLVING FOR HEAD 
                                                   Max.-Head-Change                         Max.-Flux-Residual
  Residual-Control   Outer-Iter.   Inner-Iter.     Column Row Layer    Maximum-Head-Change  Column Row Layer    Maximum-Flux-Residual          L2-NORM 
          0                 1           2             6   13     1       0.4446856159E-02       6   13    1         0.2368592054E+00      0.1067502817E+01
          0                 2           2             8    2     1       0.1700963558E-02       8    2    1         0.4418284890E-01      0.2499347941E+00
          0                 3           2             8    2     1       0.7643223929E-03       8    2    1         0.1985345458E-01      0.9105196716E-01
          0                 4           2             8    2     1       0.3434449621E-03       8    2    1         0.8921081301E-02      0.3923982922E-01
          0                 5           2             8    2     1       0.1543251259E-03       8    2    1         0.4008647620E-02      0.1744316925E-01
          0                 6           1             8    2     1       0.6934497351E-04       8    2    1         0.1801263185E-02      0.7792052043E-02
          0                 7           1             8    2     1       0.3115961838E-04       8    2    1         0.8093852953E-03      0.3483986203E-02
          0                 8           1             8    2     1       0.1400128874E-04       8    2    1         0.3636907324E-03      0.1558192112E-02
          0                 9           1             8    2     1       0.6291331951E-05       8    2    1         0.1634210120E-03      0.6970310228E-03

    ------------------------------------------------
       NWT REQUIRED            9 OUTER ITERATIONS 
       AND A TOTAL OF         14 INNER ITERATIONS.
    ------------------------------------------------

 NO OUTPUT CONTROL FOR STRESS PERIOD   25   TIME STEP    2
 
 SOLVING FOR HEAD 
                                                   Max.-Head-Change                         Max.-Flux-Residual
  Residual-Control   Outer-Iter.   Inner-Iter.     Column Row Layer    Maximum-Head-Change  Column Row Layer    Maximum-Flux-Residual          L2-NORM 
          0                 1           2             6   13     1       0.4347069213E-02       6   13    1         0.2315249023E+00      0.1063182835E+01
          0                 2           2             8    2     1       0.1699912346E-02       8    2    1         0.4415561407E-01      0.2495181464E+00
          0                 3           2             8    2     1       0.7638485640E-03       8    2    1         0.1984117789E-01      0.9096193246E-01
          0                 4           2             8    2     1       0.3432314000E-03       8    2    1         0.8915547707E-02      0.3920372284E-01
          0                 5           2             8    2     1       0.1542288764E-03       8    2    1         0.4006153580E-02      0.1742701702E-01
          0                 6           1             8    2     1       0.6930159825E-04       8    2    1         0.1800139178E-02      0.7784720774E-02
          0                 7           1             8    2     1       0.3114007270E-04       8    2    1         0.8088787652E-03      0.3480631715E-02
          0                 8           1             8    2     1       0.1399248133E-04       8    2    1         0.3634624750E-03      0.1556691790E-02
          0                 9           1             8    2     1       0.6287363439E-05       8    2    1         0.1633181568E-03      0.6963518844E-03

    ------------------------------------------------
       NWT REQUIRED            9 OUTER ITERATIONS 
       AND A TOTAL OF         14 INNER ITERATIONS.
    ------------------------------------------------

 NO OUTPUT CONTROL FOR STRESS PERIOD   25   TIME STEP    3
 
 SOLVING FOR HEAD 
                                                   Max.-Head-Change                         Max.-Flux-Residual
  Residual-Control   Outer-Iter.   Inner-Iter.     Column Row Layer    Maximum-Head-Change  Column Row Layer    Maximum-Flux-Residual          L2-NORM 
          0                 1           2             6   13     1       0.4250047341E-02       6   13    1         0.2263379515E+00      0.1059108715E+01
          0                 2           2             8    2     1       0.1698858824E-02       8    2    1         0.4412831414E-01      0.2491225909E+00
          0                 3           2             8    2     1       0.7633738035E-03       8    2    1         0.1982887476E-01      0.9087630659E-01
          0                 4           2             8    2     1       0.3430174668E-03       8    2    1         0.8910003469E-02      0.3916892929E-01
          0                 5           2             8    2     1       0.1541324814E-03       8    2    1         0.4003655304E-02      0.1741121097E-01
          0                 6           1             8    2     1       0.6925816647E-04       8    2    1         0.1799013503E-02      0.7777472814E-02
          0                 7           1             8    2     1       0.3112050501E-04       8    2    1         0.8083715879E-03      0.3477314974E-02
          0                 8           1             8    2     1       0.1398366641E-04       8    2    1         0.3632339824E-03      0.1555177801E-02
          0                 9           1             8    2     1       0.6283392176E-05       8    2    1         0.1632152190E-03      0.6956649078E-03

    ------------------------------------------------
       NWT REQUIRED            9 OUTER ITERATIONS 
       AND A TOTAL OF         14 INNER ITERATIONS.
    ------------------------------------------------

 NO OUTPUT CONTROL FOR STRESS PERIOD   25   TIME STEP    4
 
 SOLVING FOR HEAD 
                                                   Max.-Head-Change                         Max.-Flux-Residual
  Residual-Control   Outer-Iter.   Inner-Iter.     Column Row Layer    Maximum-Head-Change  Column Row Layer    Maximum-Flux-Residual          L2-NORM 
          0                 1           2             2    1     1       0.4233770613E-02       6   13    1         0.2212948134E+00      0.1055173479E+01
          0                 2           2             8    2     1       0.1697855312E-02       8    2    1         0.4410231659E-01      0.2487106768E+00
          0                 3           2             8    2     1       0.7629214431E-03       8    2    1         0.1981715498E-01      0.9078824318E-01
          0                 4           2             8    2     1       0.3428135670E-03       8    2    1         0.8904720534E-02      0.3913421522E-01
          0                 5           2             8    2     1       0.1540405806E-03       8    2    1         0.4001274075E-02      0.1739559272E-01
          0                 6           1             8    2     1       0.6921674833E-04       8    2    1         0.1797940255E-02      0.7770342800E-02
          0                 7           1             8    2     1       0.3110183897E-04       8    2    1         0.8078878843E-03      0.3474065991E-02
          0                 8           1             8    2     1       0.1397525468E-04       8    2    1         0.3630159977E-03      0.1553701555E-02
          0                 9           1             8    2     1       0.6279601993E-05       8    2    1         0.1631169900E-03      0.6949941951E-03

    ------------------------------------------------
       NWT REQUIRED            9 OUTER ITERATIONS 
       AND A TOTAL OF         14 INNER ITERATIONS.
    ------------------------------------------------

 NO OUTPUT CONTROL FOR STRESS PERIOD   25   TIME STEP    5
 
 SOLVING FOR HEAD 
                                                   Max.-Head-Change                         Max.-Flux-Residual
  Residual-Control   Outer-Iter.   Inner-Iter.     Column Row Layer    Maximum-Head-Change  Column Row Layer    Maximum-Flux-Residual          L2-NORM 
          0                 1           2             2    1     1       0.4227451252E-02       2    1    1         0.2196448716E+00      0.1051571900E+01
          0                 2           2             8    2     1       0.1696797100E-02       8    2    1         0.4407489032E-01      0.2483320605E+00
          0                 3           2             8    2     1       0.7624446695E-03       8    2    1         0.1980479755E-01      0.9068823447E-01
          0                 4           2             8    2     1       0.3425987712E-03       8    2    1         0.8899152998E-02      0.3909112586E-01
          0                 5           2             8    2     1       0.1539438161E-03       8    2    1         0.3998765809E-02      0.1737589838E-01
          0                 6           1             8    2     1       0.6917315823E-04       8    2    1         0.1796810305E-02      0.7761335975E-02
          0                 7           1             8    2     1       0.3108220426E-04       8    2    1         0.8073788892E-03      0.3469963947E-02
          0                 8           1             8    2     1       0.1396641075E-04       8    2    1         0.3627867269E-03      0.1551840724E-02
          0                 9           1             8    2     1       0.6275618725E-05       8    2    1         0.1630137241E-03      0.6941526501E-03

    ------------------------------------------------
       NWT REQUIRED            9 OUTER ITERATIONS 
       AND A TOTAL OF         14 INNER ITERATIONS.
    ------------------------------------------------

 NO OUTPUT CONTROL FOR STRESS PERIOD   25   TIME STEP    6
 
 SOLVING FOR HEAD 
                                                   Max.-Head-Change                         Max.-Flux-Residual
  Residual-Control   Outer-Iter.   Inner-Iter.     Column Row Layer    Maximum-Head-Change  Column Row Layer    Maximum-Flux-Residual          L2-NORM 
          0                 1           2             2    1     1       0.4221176816E-02       2    1    1         0.2193175548E+00      0.1048152801E+01
          0                 2           2             8    2     1       0.1695736697E-02       8    2    1         0.4404740949E-01      0.2478419543E+00
          0                 3           2             8    2     1       0.7619668621E-03       8    2    1         0.1979241433E-01      0.9054992013E-01
          0                 4           2             8    2     1       0.3423834878E-03       8    2    1         0.8893573288E-02      0.3903655856E-01
          0                 5           2             8    2     1       0.1538468221E-03       8    2    1         0.3996251816E-02      0.1735253182E-01
          0                 6           1             8    2     1       0.6912946133E-04       8    2    1         0.1795677670E-02      0.7751141777E-02
          0                 7           1             8    2     1       0.3106251952E-04       8    2    1         0.8068686262E-03      0.3465491492E-02
          0                 8           1             8    2     1       0.1395754332E-04       8    2    1         0.3625568560E-03      0.1549873421E-02
          0                 9           1             8    2     1       0.6271624201E-05       8    2    1         0.1629101713E-03      0.6932862800E-03

    ------------------------------------------------
       NWT REQUIRED            9 OUTER ITERATIONS 
       AND A TOTAL OF         14 INNER ITERATIONS.
    ------------------------------------------------

 NO OUTPUT CONTROL FOR STRESS PERIOD   25   TIME STEP    7
 
 SOLVING FOR HEAD 
                                                   Max.-Head-Change                         Max.-Flux-Residual
  Residual-Control   Outer-Iter.   Inner-Iter.     Column Row Layer    Maximum-Head-Change  Column Row Layer    Maximum-Flux-Residual          L2-NORM 
          0                 1           2             2    1     1       0.4214946917E-02       2    1    1         0.2189925608E+00      0.1043991484E+01
          0                 2           2             8    2     1       0.1694674453E-02       8    2    1         0.4401987703E-01      0.2473887246E+00
          0                 3           2             8    2     1       0.7614883059E-03       8    2    1         0.1978000998E-01      0.9045401020E-01
          0                 4           2             8    2     1       0.3421679039E-03       8    2    1         0.8887985013E-02      0.3899956874E-01
          0                 5           2             8    2     1       0.1537497094E-03       8    2    1         0.3993734387E-02      0.1733615201E-01
          0                 6           1             8    2     1       0.6908571791E-04       8    2    1         0.1794543667E-02      0.7743748608E-02
          0                 7           1             8    2     1       0.3104281627E-04       8    2    1         0.8063578253E-03      0.3462147445E-02
          0                 8           1             8    2     1       0.1394866938E-04       8    2    1         0.3623267860E-03      0.1548360701E-02
          0                 9           1             8    2     1       0.6267627427E-05       8    2    1         0.1628065476E-03      0.6926012506E-03

    ------------------------------------------------
       NWT REQUIRED            9 OUTER ITERATIONS 
       AND A TOTAL OF         14 INNER ITERATIONS.
    ------------------------------------------------

 NO OUTPUT CONTROL FOR STRESS PERIOD   25   TIME STEP    8
 
 SOLVING FOR HEAD 
                                                   Max.-Head-Change                         Max.-Flux-Residual
  Residual-Control   Outer-Iter.   Inner-Iter.     Column Row Layer    Maximum-Head-Change  Column Row Layer    Maximum-Flux-Residual          L2-NORM 
          0                 1           2             2    1     1       0.4208761176E-02       2    1    1         0.2186698738E+00      0.1040662061E+01
          0                 2           2             8    2     1       0.1693610512E-02       8    2    1         0.4399229848E-01      0.2470165086E+00
          0                 3           2             8    2     1       0.7610090291E-03       8    2    1         0.1976758602E-01      0.9036519127E-01
          0                 4           2             8    2     1       0.3419520140E-03       8    2    1         0.8882388408E-02      0.3896367666E-01
          0                 5           2             8    2     1       0.1536524670E-03       8    2    1         0.3991213428E-02      0.1732013780E-01
          0                 6           1             8    2     1       0.6904191946E-04       8    2    1         0.1793408173E-02      0.7736509854E-02
          0                 7           1             8    2     1       0.3102309076E-04       8    2    1         0.8058464039E-03      0.3458871446E-02
          0                 8           1             8    2     1       0.1393978518E-04       8    2    1         0.3620964504E-03      0.1546878817E-02
          0                 9           1             8    2     1       0.6263626651E-05       8    2    1         0.1627028193E-03      0.6919318030E-03

    ------------------------------------------------
       NWT REQUIRED            9 OUTER ITERATIONS 
       AND A TOTAL OF         14 INNER ITERATIONS.
    ------------------------------------------------

 NO OUTPUT CONTROL FOR STRESS PERIOD   25   TIME STEP    9
 
 SOLVING FOR HEAD 
                                                   Max.-Head-Change                         Max.-Flux-Residual
  Residual-Control   Outer-Iter.   Inner-Iter.     Column Row Layer    Maximum-Head-Change  Column Row Layer    Maximum-Flux-Residual          L2-NORM 
          0                 1           2             2    1     1       0.4202595062E-02       2    1    1         0.2183482209E+00      0.1037752290E+01
          0                 2           2             8    2     1       0.1692544878E-02       8    2    1         0.4396467588E-01      0.2466909045E+00
          0                 3           2             8    2     1       0.7605289839E-03       8    2    1         0.1975514232E-01      0.9026386682E-01
          0                 4           2             8    2     1       0.3417357680E-03       8    2    1         0.8876782823E-02      0.3891746200E-01
          0                 5           2             8    2     1       0.1535550550E-03       8    2    1         0.3988688285E-02      0.1729848491E-01
          0                 6           1             8    2     1       0.6899803823E-04       8    2    1         0.1792270677E-02      0.7726427221E-02
          0                 7           1             8    2     1       0.3100332273E-04       8    2    1         0.8053339928E-03      0.3454210376E-02
          0                 8           1             8    2     1       0.1393088048E-04       8    2    1         0.3618656253E-03      0.1544737642E-02
          0                 9           1             8    2     1       0.6259614869E-05       8    2    1         0.1625988323E-03      0.6909518617E-03

    ------------------------------------------------
       NWT REQUIRED            9 OUTER ITERATIONS 
       AND A TOTAL OF         14 INNER ITERATIONS.
    ------------------------------------------------

 NO OUTPUT CONTROL FOR STRESS PERIOD   25   TIME STEP   10
 
 SOLVING FOR HEAD 
                                                   Max.-Head-Change                         Max.-Flux-Residual
  Residual-Control   Outer-Iter.   Inner-Iter.     Column Row Layer    Maximum-Head-Change  Column Row Layer    Maximum-Flux-Residual          L2-NORM 
          0                 1           2             2    1     1       0.4196496380E-02       2    1    1         0.2180300855E+00      0.1034788189E+01
          0                 2           2             8    2     1       0.1691477436E-02       8    2    1         0.4393700921E-01      0.2461220619E+00
          0                 3           2             8    2     1       0.7600480179E-03       8    2    1         0.1974267722E-01      0.9007506459E-01
          0                 4           2             8    2     1       0.3415190380E-03       8    2    1         0.8871166234E-02      0.3884182542E-01
          0                 5           2             8    2     1       0.1534573867E-03       8    2    1         0.3986157333E-02      0.1726657301E-01
          0                 6           1             8    2     1       0.6895402119E-04       8    2    1         0.1791130094E-02      0.7712758735E-02
          0                 7           1             8    2     1       0.3098348468E-04       8    2    1         0.8048199551E-03      0.3448320024E-02
          0                 8           1             8    2     1       0.1392193851E-04       8    2    1         0.3616339371E-03      0.1542188398E-02
          0                 9           1             8    2     1       0.6255584580E-05       8    2    1         0.1624944032E-03      0.6898455256E-03

    ------------------------------------------------
       NWT REQUIRED            9 OUTER ITERATIONS 
       AND A TOTAL OF         14 INNER ITERATIONS.
    ------------------------------------------------

 NO OUTPUT CONTROL FOR STRESS PERIOD   25   TIME STEP   11
 
 SOLVING FOR HEAD 
                                                   Max.-Head-Change                         Max.-Flux-Residual
  Residual-Control   Outer-Iter.   Inner-Iter.     Column Row Layer    Maximum-Head-Change  Column Row Layer    Maximum-Flux-Residual          L2-NORM 
          0                 1           2             2    1     1       0.4190440526E-02       2    1    1         0.2177141909E+00      0.1030818891E+01
          0                 2           2             8    2     1       0.1690408215E-02       8    2    1         0.4390929346E-01      0.2456173254E+00
          0                 3           2             8    2     1       0.7595663701E-03       8    2    1         0.1973019164E-01      0.8995203651E-01
          0                 4           2             8    2     1       0.3413020837E-03       8    2    1         0.8865541963E-02      0.3879373879E-01
          0                 5           2             8    2     1       0.1533596668E-03       8    2    1         0.3983623957E-02      0.1724565254E-01
          0                 6           1             8    2     1       0.6891000865E-04       8    2    1         0.1789989030E-02      0.7703489754E-02
          0                 7           1             8    2     1       0.3096366238E-04       8    2    1         0.8043060317E-03      0.3444196318E-02
          0                 8           1             8    2     1       0.1391301179E-04       8    2    1         0.3614024889E-03      0.1540350492E-02
          0                 9           1             8    2     1       0.6251564795E-05       8    2    1         0.1623901725E-03      0.6890255080E-03

    ------------------------------------------------
       NWT REQUIRED            9 OUTER ITERATIONS 
       AND A TOTAL OF         14 INNER ITERATIONS.
    ------------------------------------------------

 NO OUTPUT CONTROL FOR STRESS PERIOD   25   TIME STEP   12
 
 SOLVING FOR HEAD 
                                                   Max.-Head-Change                         Max.-Flux-Residual
  Residual-Control   Outer-Iter.   Inner-Iter.     Column Row Layer    Maximum-Head-Change  Column Row Layer    Maximum-Flux-Residual          L2-NORM 
          0                 1           2             2    1     1       0.4184403024E-02       2    1    1         0.2173992599E+00      0.1028594669E+01
          0                 2           2             8    2     1       0.1689337327E-02       8    2    1         0.4388153409E-01      0.2453269056E+00
          0                 3           2             8    2     1       0.7590839799E-03       8    2    1         0.1971768664E-01      0.8986382526E-01
          0                 4           2             8    2     1       0.3410847987E-03       8    2    1         0.8859909043E-02      0.3875540592E-01
          0                 5           2             8    2     1       0.1532617993E-03       8    2    1         0.3981086723E-02      0.1722844826E-01
          0                 6           1             8    2     1       0.6886593033E-04       8    2    1         0.1788846240E-02      0.7695746836E-02
          0                 7           1             8    2     1       0.3094381081E-04       8    2    1         0.8037913315E-03      0.3440710672E-02
          0                 8           1             8    2     1       0.1390407158E-04       8    2    1         0.3611706843E-03      0.1538781851E-02
          0                 9           1             8    2     1       0.6247538508E-05       8    2    1         0.1622857821E-03      0.6883196331E-03

    ------------------------------------------------
       NWT REQUIRED            9 OUTER ITERATIONS 
       AND A TOTAL OF         14 INNER ITERATIONS.
    ------------------------------------------------

 NO OUTPUT CONTROL FOR STRESS PERIOD   25   TIME STEP   13
 
 SOLVING FOR HEAD 
                                                   Max.-Head-Change                         Max.-Flux-Residual
  Residual-Control   Outer-Iter.   Inner-Iter.     Column Row Layer    Maximum-Head-Change  Column Row Layer    Maximum-Flux-Residual          L2-NORM 
          0                 1           2             2    1     1       0.4178431784E-02       2    1    1         0.2170877827E+00      0.1026080812E+01
          0                 2           2             8    2     1       0.1688264942E-02       8    2    1         0.4385373387E-01      0.2450523420E+00
          0                 3           2             8    2     1       0.7586009584E-03       8    2    1         0.1970516437E-01      0.8978500995E-01
          0                 4           2             8    2     1       0.3408672487E-03       8    2    1         0.8854268842E-02      0.3872125376E-01
          0                 5           2             8    2     1       0.1531638206E-03       8    2    1         0.3978546428E-02      0.1721287705E-01
          0                 6           1             8    2     1       0.6882180549E-04       8    2    1         0.1787702174E-02      0.7688629693E-02
          0                 7           1             8    2     1       0.3092394024E-04       8    2    1         0.8032761072E-03      0.3437466441E-02
          0                 8           1             8    2     1       0.1389512360E-04       8    2    1         0.3609386666E-03      0.1537308306E-02
          0                 9           1             8    2     1       0.6243509469E-05       8    2    1         0.1621813030E-03      0.6876516929E-03

    ------------------------------------------------
       NWT REQUIRED            9 OUTER ITERATIONS 
       AND A TOTAL OF         14 INNER ITERATIONS.
    ------------------------------------------------

 NO OUTPUT CONTROL FOR STRESS PERIOD   25   TIME STEP   14
 
 SOLVING FOR HEAD 
                                                   Max.-Head-Change                         Max.-Flux-Residual
  Residual-Control   Outer-Iter.   Inner-Iter.     Column Row Layer    Maximum-Head-Change  Column Row Layer    Maximum-Flux-Residual          L2-NORM 
          0                 1           2             2    1     1       0.4172478098E-02       2    1    1         0.2167772331E+00      0.1023560938E+01
          0                 2           2             8    2     1       0.1687191352E-02       8    2    1         0.4382589878E-01      0.2447467734E+00
          0                 3           2             8    2     1       0.7581174693E-03       8    2    1         0.1969262838E-01      0.8970152046E-01
          0                 4           2             8    2     1       0.3406495210E-03       8    2    1         0.8848623336E-02      0.3868633813E-01
          0                 5           2             8    2     1       0.1530657768E-03       8    2    1         0.3976004134E-02      0.1719717410E-01
          0                 6           1             8    2     1       0.6877765814E-04       8    2    1         0.1786557376E-02      0.7681507542E-02
          0                 7           1             8    2     1       0.3090406217E-04       8    2    1         0.8027606261E-03      0.3434236310E-02
          0                 8           1             8    2     1       0.1388617363E-04       8    2    1         0.3607065620E-03      0.1535843313E-02
          0                 9           1             8    2     1       0.6239479680E-05       8    2    1         0.1620767984E-03      0.6869882401E-03

    ------------------------------------------------
       NWT REQUIRED            9 OUTER ITERATIONS 
       AND A TOTAL OF         14 INNER ITERATIONS.
    ------------------------------------------------

 NO OUTPUT CONTROL FOR STRESS PERIOD   25   TIME STEP   15
 
 SOLVING FOR HEAD 
                                                   Max.-Head-Change                         Max.-Flux-Residual
  Residual-Control   Outer-Iter.   Inner-Iter.     Column Row Layer    Maximum-Head-Change  Column Row Layer    Maximum-Flux-Residual          L2-NORM 
          0                 1           2             2    1     1       0.4166589899E-02       2    1    1         0.2164700948E+00      0.1021325464E+01
          0                 2           2             8    2     1       0.1686063857E-02       8    2    1         0.4379666322E-01      0.2444755213E+00
          0                 3           2             8    2     1       0.7576097656E-03       8    2    1         0.1967946327E-01      0.8962311105E-01
          0                 4           2             8    2     1       0.3404209153E-03       8    2    1         0.8842695207E-02      0.3865255859E-01
          0                 5           2             8    2     1       0.1529628461E-03       8    2    1         0.3973334875E-02      0.1718177941E-01
          0                 6           1             8    2     1       0.6873131531E-04       8    2    1         0.1785355543E-02      0.7674467249E-02
          0                 7           1             8    2     1       0.3088319765E-04       8    2    1         0.8022195207E-03      0.3431024741E-02
          0                 8           1             8    2     1       0.1387678021E-04       8    2    1         0.3604629510E-03      0.1534382148E-02
          0                 9           1             8    2     1       0.6235251303E-05       8    2    1         0.1619671291E-03      0.6863246268E-03

    ------------------------------------------------
       NWT REQUIRED            9 OUTER ITERATIONS 
       AND A TOTAL OF         14 INNER ITERATIONS.
    ------------------------------------------------

 NO OUTPUT CONTROL FOR STRESS PERIOD   25   TIME STEP   16
 
 SOLVING FOR HEAD 
                                                   Max.-Head-Change                         Max.-Flux-Residual
  Residual-Control   Outer-Iter.   Inner-Iter.     Column Row Layer    Maximum-Head-Change  Column Row Layer    Maximum-Flux-Residual          L2-NORM 
          0                 1           2             2    1     1       0.4160718418E-02       2    1    1         0.2161638439E+00      0.1019093290E+01
          0                 2           2             8    2     1       0.1684988120E-02       8    2    1         0.4376877035E-01      0.2441750711E+00
          0                 3           2             8    2     1       0.7571253531E-03       8    2    1         0.1966690242E-01      0.8952545725E-01
          0                 4           2             8    2     1       0.3402027914E-03       8    2    1         0.8837039023E-02      0.3860982305E-01
          0                 5           2             8    2     1       0.1528646325E-03       8    2    1         0.3970787997E-02      0.1716244697E-01
          0                 6           1             8    2     1       0.6868709493E-04       8    2    1         0.1784208782E-02      0.7665707923E-02
          0                 7           1             8    2     1       0.3086328856E-04       8    2    1         0.8017032041E-03      0.3427063066E-02
          0                 8           1             8    2     1       0.1386781723E-04       8    2    1         0.3602304938E-03      0.1532593832E-02
          0                 9           1             8    2     1       0.6231216261E-05       8    2    1         0.1618624739E-03      0.6855190739E-03

    ------------------------------------------------
       NWT REQUIRED            9 OUTER ITERATIONS 
       AND A TOTAL OF         14 INNER ITERATIONS.
    ------------------------------------------------

 NO OUTPUT CONTROL FOR STRESS PERIOD   25   TIME STEP   17
 
 SOLVING FOR HEAD 
                                                   Max.-Head-Change                         Max.-Flux-Residual
  Residual-Control   Outer-Iter.   Inner-Iter.     Column Row Layer    Maximum-Head-Change  Column Row Layer    Maximum-Flux-Residual          L2-NORM 
          0                 1           2             2    1     1       0.4154887534E-02       2    1    1         0.2158597071E+00      0.1017235576E+01
          0                 2           2             8    2     1       0.1683911362E-02       8    2    1         0.4374085035E-01      0.2438997107E+00
          0                 3           2             8    2     1       0.7566404958E-03       8    2    1         0.1965432972E-01      0.8942415003E-01
          0                 4           2             8    2     1       0.3399844732E-03       8    2    1         0.8831377665E-02      0.3856518792E-01
          0                 5           2             8    2     1       0.1527663339E-03       8    2    1         0.3968238861E-02      0.1714259430E-01
          0                 6           1             8    2     1       0.6864283753E-04       8    2    1         0.1783061036E-02      0.7656873760E-02
          0                 7           1             8    2     1       0.3084336347E-04       8    2    1         0.8011864550E-03      0.3423131449E-02
          0                 8           1             8    2     1       0.1385884675E-04       8    2    1         0.3599978462E-03      0.1530844371E-02
          0                 9           1             8    2     1       0.6227177968E-05       8    2    1         0.1617577375E-03      0.6847392416E-03

    ------------------------------------------------
       NWT REQUIRED            9 OUTER ITERATIONS 
       AND A TOTAL OF         14 INNER ITERATIONS.
    ------------------------------------------------

 NO OUTPUT CONTROL FOR STRESS PERIOD   25   TIME STEP   18
 
 SOLVING FOR HEAD 
                                                   Max.-Head-Change                         Max.-Flux-Residual
  Residual-Control   Outer-Iter.   Inner-Iter.     Column Row Layer    Maximum-Head-Change  Column Row Layer    Maximum-Flux-Residual          L2-NORM 
          0                 1           2             2    1     1       0.4149121001E-02       2    1    1         0.2155589281E+00      0.1015393269E+01
          0                 2           2             8    2     1       0.1682833822E-02       8    2    1         0.4371290723E-01      0.2435561447E+00
          0                 3           2             8    2     1       0.7561553444E-03       8    2    1         0.1964174817E-01      0.8927897858E-01
          0                 4           2             8    2     1       0.3397660485E-03       8    2    1         0.8825713003E-02      0.3849834981E-01
          0                 5           2             8    2     1       0.1526679989E-03       8    2    1         0.3965688536E-02      0.1711201677E-01
          0                 6           1             8    2     1       0.6859856863E-04       8    2    1         0.1781912881E-02      0.7642936885E-02
          0                 7           1             8    2     1       0.3082343487E-04       8    2    1         0.8006695778E-03      0.3416794444E-02
          0                 8           1             8    2     1       0.1384987626E-04       8    2    1         0.3597651698E-03      0.1527967889E-02
          0                 9           1             8    2     1       0.6223139925E-05       8    2    1         0.1616529972E-03      0.6834368343E-03

    ------------------------------------------------
       NWT REQUIRED            9 OUTER ITERATIONS 
       AND A TOTAL OF         14 INNER ITERATIONS.
    ------------------------------------------------

 NO OUTPUT CONTROL FOR STRESS PERIOD   25   TIME STEP   19
 
 SOLVING FOR HEAD 
                                                   Max.-Head-Change                         Max.-Flux-Residual
  Residual-Control   Outer-Iter.   Inner-Iter.     Column Row Layer    Maximum-Head-Change  Column Row Layer    Maximum-Flux-Residual          L2-NORM 
          0                 1           2             2    1     1       0.4143370046E-02       2    1    1         0.2152589747E+00      0.1013337961E+01
          0                 2           2             8    2     1       0.1681702913E-02       8    2    1         0.4368357611E-01      0.2431907616E+00
          0                 3           2             8    2     1       0.7556462491E-03       8    2    1         0.1962854389E-01      0.8914531432E-01
          0                 4           2             8    2     1       0.3395368808E-03       8    2    1         0.8819768945E-02      0.3844070791E-01
          0                 5           2             8    2     1       0.1525648439E-03       8    2    1         0.3963012856E-02      0.1708661724E-01
          0                 6           1             8    2     1       0.6855213701E-04       8    2    1         0.1780708485E-02      0.7631698216E-02
          0                 7           1             8    2     1       0.3080253634E-04       8    2    1         0.8001274670E-03      0.3411814719E-02
          0                 8           1             8    2     1       0.1384047009E-04       8    2    1         0.3595211673E-03      0.1525759669E-02
          0                 9           1             8    2     1       0.6218906296E-05       8    2    1         0.1615431772E-03      0.6824568332E-03

    ------------------------------------------------
       NWT REQUIRED            9 OUTER ITERATIONS 
       AND A TOTAL OF         14 INNER ITERATIONS.
    ------------------------------------------------

 NO OUTPUT CONTROL FOR STRESS PERIOD   25   TIME STEP   20
 
 SOLVING FOR HEAD 
                                                   Max.-Head-Change                         Max.-Flux-Residual
  Residual-Control   Outer-Iter.   Inner-Iter.     Column Row Layer    Maximum-Head-Change  Column Row Layer    Maximum-Flux-Residual          L2-NORM 
          0                 1           2             2    1     1       0.4137658550E-02       2    1    1         0.2149610776E+00      0.1011498019E+01
          0                 2           2             8    2     1       0.1680623993E-02       8    2    1         0.4365559788E-01      0.2429143438E+00
          0                 3           2             8    2     1       0.7551604437E-03       8    2    1         0.1961594616E-01      0.8904224583E-01
          0                 4           2             8    2     1       0.3393181339E-03       8    2    1         0.8814096558E-02      0.3839326853E-01
          0                 5           2             8    2     1       0.1524663447E-03       8    2    1         0.3960458709E-02      0.1706458889E-01
          0                 6           1             8    2     1       0.6850778307E-04       8    2    1         0.1779558386E-02      0.7621528799E-02
          0                 7           1             8    2     1       0.3078256247E-04       8    2    1         0.7996095715E-03      0.3407145972E-02
          0                 8           1             8    2     1       0.1383147534E-04       8    2    1         0.3592879507E-03      0.1523627303E-02
          0                 9           1             8    2     1       0.6214855247E-05       8    2    1         0.1614381477E-03      0.6814868515E-03

    ------------------------------------------------
       NWT REQUIRED            9 OUTER ITERATIONS 
       AND A TOTAL OF         14 INNER ITERATIONS.
    ------------------------------------------------

 NO OUTPUT CONTROL FOR STRESS PERIOD   25   TIME STEP   21
 
 SOLVING FOR HEAD 
                                                   Max.-Head-Change                         Max.-Flux-Residual
  Residual-Control   Outer-Iter.   Inner-Iter.     Column Row Layer    Maximum-Head-Change  Column Row Layer    Maximum-Flux-Residual          L2-NORM 
          0                 1           2             2    1     1       0.4131986179E-02       2    1    1         0.2146652252E+00      0.1009764495E+01
          0                 2           2             8    2     1       0.1679544229E-02       8    2    1         0.4362759868E-01      0.2425800364E+00
          0                 3           2             8    2     1       0.7546742121E-03       8    2    1         0.1960333850E-01      0.8890778804E-01
          0                 4           2             8    2     1       0.3390991632E-03       8    2    1         0.8808419090E-02      0.3833470113E-01
          0                 5           2             8    2     1       0.1523677271E-03       8    2    1         0.3957901872E-02      0.1703906571E-01
          0                 6           1             8    2     1       0.6846336635E-04       8    2    1         0.1778406850E-02      0.7610382801E-02
          0                 7           1             8    2     1       0.3076255659E-04       8    2    1         0.7990909195E-03      0.3402268482E-02
          0                 8           1             8    2     1       0.1382246384E-04       8    2    1         0.3590543356E-03      0.1521488453E-02
          0                 9           1             8    2     1       0.6210796195E-05       8    2    1         0.1613329186E-03      0.6805558741E-03

    ------------------------------------------------
       NWT REQUIRED            9 OUTER ITERATIONS 
       AND A TOTAL OF         14 INNER ITERATIONS.
    ------------------------------------------------

 NO OUTPUT CONTROL FOR STRESS PERIOD   25   TIME STEP   22
 
 SOLVING FOR HEAD 
                                                   Max.-Head-Change                         Max.-Flux-Residual
  Residual-Control   Outer-Iter.   Inner-Iter.     Column Row Layer    Maximum-Head-Change  Column Row Layer    Maximum-Flux-Residual          L2-NORM 
          0                 1           2             2    1     1       0.4126352564E-02       2    1    1         0.2143713980E+00      0.1007617545E+01
          0                 2           2             8    2     1       0.1678410941E-02       8    2    1         0.4359820664E-01      0.2421998858E+00
          0                 3           2             8    2     1       0.7541640293E-03       8    2    1         0.1959010635E-01      0.8880088953E-01
          0                 4           2             8    2     1       0.3388694990E-03       8    2    1         0.8802462293E-02      0.3829298243E-01
          0                 5           2             8    2     1       0.1522643457E-03       8    2    1         0.3955220377E-02      0.1702087743E-01
          0                 6           1             8    2     1       0.6841683119E-04       8    2    1         0.1777199800E-02      0.7602255186E-02
          0                 7           1             8    2     1       0.3074161104E-04       8    2    1         0.7985476048E-03      0.3398618117E-02
          0                 8           1             8    2     1       0.1381303641E-04       8    2    1         0.3588097890E-03      0.1519846476E-02
          0                 9           1             8    2     1       0.6206553311E-05       8    2    1         0.1612228502E-03      0.6798084272E-03

    ------------------------------------------------
       NWT REQUIRED            9 OUTER ITERATIONS 
       AND A TOTAL OF         14 INNER ITERATIONS.
    ------------------------------------------------

 NO OUTPUT CONTROL FOR STRESS PERIOD   25   TIME STEP   23
 
 SOLVING FOR HEAD 
                                                   Max.-Head-Change                         Max.-Flux-Residual
  Residual-Control   Outer-Iter.   Inner-Iter.     Column Row Layer    Maximum-Head-Change  Column Row Layer    Maximum-Flux-Residual          L2-NORM 
          0                 1           2             2    1     1       0.4120757345E-02       2    1    1         0.2140795773E+00      0.1004664721E+01
          0                 2           2             8    2     1       0.1677329660E-02       8    2    1         0.4357016674E-01      0.2417840475E+00
          0                 3           2             8    2     1       0.7536771897E-03       8    2    1         0.1957748110E-01      0.8869474723E-01
          0                 4           2             8    2     1       0.3386503126E-03       8    2    1         0.8796777913E-02      0.3825114687E-01
          0                 5           2             8    2     1       0.1521656669E-03       8    2    1         0.3952661153E-02      0.1700257612E-01
          0                 6           1             8    2     1       0.6837240721E-04       8    2    1         0.1776047632E-02      0.7594104364E-02
          0                 7           1             8    2     1       0.3072161266E-04       8    2    1         0.7980289188E-03      0.3394974334E-02
          0                 8           1             8    2     1       0.1380403416E-04       8    2    1         0.3585762959E-03      0.1518215278E-02
          0                 9           1             8    2     1       0.6202501012E-05       8    2    1         0.1611177472E-03      0.6790775175E-03

    ------------------------------------------------
       NWT REQUIRED            9 OUTER ITERATIONS 
       AND A TOTAL OF         14 INNER ITERATIONS.
    ------------------------------------------------

 NO OUTPUT CONTROL FOR STRESS PERIOD   25   TIME STEP   24
 
 SOLVING FOR HEAD 
                                                   Max.-Head-Change                         Max.-Flux-Residual
  Residual-Control   Outer-Iter.   Inner-Iter.     Column Row Layer    Maximum-Head-Change  Column Row Layer    Maximum-Flux-Residual          L2-NORM 
          0                 1           2             2    1     1       0.4115200164E-02       2    1    1         0.2137897442E+00      0.1003034387E+01
          0                 2           2             8    2     1       0.1676195210E-02       8    2    1         0.4354074120E-01      0.2415544656E+00
          0                 3           2             8    2     1       0.7531665545E-03       8    2    1         0.1956423573E-01      0.8861707852E-01
          0                 4           2             8    2     1       0.3384204756E-03       8    2    1         0.8790815987E-02      0.3821695133E-01
          0                 5           2             8    2     1       0.1520622215E-03       8    2    1         0.3949977720E-02      0.1698707778E-01
          0                 6           1             8    2     1       0.6832585054E-04       8    2    1         0.1774839880E-02      0.7587062007E-02
          0                 7           1             8    2     1       0.3070065961E-04       8    2    1         0.7974853493E-03      0.3391776335E-02
          0                 8           1             8    2     1       0.1379460422E-04       8    2    1         0.3583316613E-03      0.1516764604E-02
          0                 9           1             8    2     1       0.6198257378E-05       8    2    1         0.1610076550E-03      0.6784201734E-03

    ------------------------------------------------
       NWT REQUIRED            9 OUTER ITERATIONS 
       AND A TOTAL OF         14 INNER ITERATIONS.
    ------------------------------------------------

 NO OUTPUT CONTROL FOR STRESS PERIOD   25   TIME STEP   25
 
 SOLVING FOR HEAD 
                                                   Max.-Head-Change                         Max.-Flux-Residual
  Residual-Control   Outer-Iter.   Inner-Iter.     Column Row Layer    Maximum-Head-Change  Column Row Layer    Maximum-Flux-Residual          L2-NORM 
          0                 1           2             2    1     1       0.4109680782E-02       2    1    1         0.2135018804E+00      0.1001068263E+01
          0                 2           2             8    2     1       0.1675112547E-02       8    2    1         0.4351267032E-01      0.2411761364E+00
          0                 3           2             8    2     1       0.7526789032E-03       8    2    1         0.1955159386E-01      0.8847422524E-01
          0                 4           2             8    2     1       0.3382007886E-03       8    2    1         0.8785121676E-02      0.3815230627E-01
          0                 5           2             8    2     1       0.1519632328E-03       8    2    1         0.3947412340E-02      0.1695723314E-01
          0                 6           1             8    2     1       0.6828123849E-04       8    2    1         0.1773683912E-02      0.7573316589E-02
          0                 7           1             8    2     1       0.3068054968E-04       8    2    1         0.7969643601E-03      0.3385474895E-02
          0                 8           1             8    2     1       0.1378553745E-04       8    2    1         0.3580968055E-03      0.1513887845E-02
          0                 9           1             8    2     1       0.6194168313E-05       8    2    1         0.1609017582E-03      0.6771117831E-03

    ------------------------------------------------
       NWT REQUIRED            9 OUTER ITERATIONS 
       AND A TOTAL OF         14 INNER ITERATIONS.
    ------------------------------------------------

 NO OUTPUT CONTROL FOR STRESS PERIOD   25   TIME STEP   26
 
 SOLVING FOR HEAD 
                                                   Max.-Head-Change                         Max.-Flux-Residual
  Residual-Control   Outer-Iter.   Inner-Iter.     Column Row Layer    Maximum-Head-Change  Column Row Layer    Maximum-Flux-Residual          L2-NORM 
          0                 1           2             2    1     1       0.4104198774E-02       2    1    1         0.2132159753E+00      0.9993792590E+00
          0                 2           2             8    2     1       0.1673976072E-02       8    2    1         0.4348319893E-01      0.2408916733E+00
          0                 3           2             8    2     1       0.7521671935E-03       8    2    1         0.1953832418E-01      0.8837607107E-01
          0                 4           2             8    2     1       0.3379703835E-03       8    2    1         0.8779146852E-02      0.3810980112E-01
          0                 5           2             8    2     1       0.1518594892E-03       8    2    1         0.3944722088E-02      0.1693820263E-01
          0                 6           1             8    2     1       0.6823452550E-04       8    2    1         0.1772472573E-02      0.7564758596E-02
          0                 7           1             8    2     1       0.3065951634E-04       8    2    1         0.7964189312E-03      0.3381625763E-02
          0                 8           1             8    2     1       0.1377606649E-04       8    2    1         0.3578512093E-03      0.1512157243E-02
          0                 9           1             8    2     1       0.6189903919E-05       8    2    1         0.1607911737E-03      0.6763335527E-03

    ------------------------------------------------
       NWT REQUIRED            9 OUTER ITERATIONS 
       AND A TOTAL OF         14 INNER ITERATIONS.
    ------------------------------------------------

 NO OUTPUT CONTROL FOR STRESS PERIOD   25   TIME STEP   27
 
 SOLVING FOR HEAD 
                                                   Max.-Head-Change                         Max.-Flux-Residual
  Residual-Control   Outer-Iter.   Inner-Iter.     Column Row Layer    Maximum-Head-Change  Column Row Layer    Maximum-Flux-Residual          L2-NORM 
          0                 1           2             2    1     1       0.4098729635E-02       2    1    1         0.2129307479E+00      0.9976912973E+00
          0                 2           2             8    2     1       0.1672838723E-02       8    2    1         0.4345370435E-01      0.2406491346E+00
          0                 3           2             8    2     1       0.7516551259E-03       8    2    1         0.1952504435E-01      0.8829531983E-01
          0                 4           2             8    2     1       0.3377398459E-03       8    2    1         0.8773167932E-02      0.3807355295E-01
          0                 5           2             8    2     1       0.1517557034E-03       8    2    1         0.3942030342E-02      0.1692138739E-01
          0                 6           1             8    2     1       0.6818780426E-04       8    2    1         0.1771260787E-02      0.7556982332E-02
          0                 7           1             8    2     1       0.3063848450E-04       8    2    1         0.7958734202E-03      0.3378051534E-02
          0                 8           1             8    2     1       0.1376659929E-04       8    2    1         0.3576056464E-03      0.1510523144E-02
          0                 9           1             8    2     1       0.6185642527E-05       8    2    1         0.1606806354E-03      0.6755905487E-03

    ------------------------------------------------
       NWT REQUIRED            9 OUTER ITERATIONS 
       AND A TOTAL OF         14 INNER ITERATIONS.
    ------------------------------------------------

 NO OUTPUT CONTROL FOR STRESS PERIOD   25   TIME STEP   28
 
 SOLVING FOR HEAD 
                                                   Max.-Head-Change                         Max.-Flux-Residual
  Residual-Control   Outer-Iter.   Inner-Iter.     Column Row Layer    Maximum-Head-Change  Column Row Layer    Maximum-Flux-Residual          L2-NORM 
          0                 1           2             2    1     1       0.4093321479E-02       2    1    1         0.2126486955E+00      0.9949054719E+00
          0                 2           2             8    2     1       0.1671753339E-02       8    2    1         0.4342555898E-01      0.2401835639E+00
          0                 3           2             8    2     1       0.7511664189E-03       8    2    1         0.1951237109E-01      0.8816872393E-01
          0                 4           2             8    2     1       0.3375198107E-03       8    2    1         0.8767461707E-02      0.3802414202E-01
          0                 5           2             8    2     1       0.1516566387E-03       8    2    1         0.3939461186E-02      0.1690002557E-01
          0                 6           1             8    2     1       0.6814320495E-04       8    2    1         0.1770104108E-02      0.7547559555E-02
          0                 7           1             8    2     1       0.3061840709E-04       8    2    1         0.7953526893E-03      0.3373877152E-02
          0                 8           1             8    2     1       0.1375756103E-04       8    2    1         0.3573712232E-03      0.1508670873E-02
          0                 9           1             8    2     1       0.6181573721E-05       8    2    1         0.1605751076E-03      0.6747669212E-03

    ------------------------------------------------
       NWT REQUIRED            9 OUTER ITERATIONS 
       AND A TOTAL OF         14 INNER ITERATIONS.
    ------------------------------------------------

 NO OUTPUT CONTROL FOR STRESS PERIOD   25   TIME STEP   29
 
 SOLVING FOR HEAD 
                                                   Max.-Head-Change                         Max.-Flux-Residual
  Residual-Control   Outer-Iter.   Inner-Iter.     Column Row Layer    Maximum-Head-Change  Column Row Layer    Maximum-Flux-Residual          L2-NORM 
          0                 1           2             2    1     1       0.4087949682E-02       2    1    1         0.2123685486E+00      0.9936522856E+00
          0                 2           2             8    2     1       0.1670614453E-02       8    2    1         0.4339602208E-01      0.2399897545E+00
          0                 3           2             8    2     1       0.7506537101E-03       8    2    1         0.1949907356E-01      0.8809515586E-01
          0                 4           2             8    2     1       0.3372890060E-03       8    2    1         0.8761475400E-02      0.3799058712E-01
          0                 5           2             8    2     1       0.1515527428E-03       8    2    1         0.3936766376E-02      0.1688461440E-01
          0                 6           1             8    2     1       0.6809643819E-04       8    2    1         0.1768891049E-02      0.7540510808E-02
          0                 7           1             8    2     1       0.3059735624E-04       8    2    1         0.7948066561E-03      0.3370661990E-02
          0                 8           1             8    2     1       0.1374808607E-04       8    2    1         0.3571254488E-03      0.1507208826E-02
          0                 9           1             8    2     1       0.6177309578E-05       8    2    1         0.1604644878E-03      0.6741035516E-03

    ------------------------------------------------
       NWT REQUIRED            9 OUTER ITERATIONS 
       AND A TOTAL OF         14 INNER ITERATIONS.
    ------------------------------------------------

 NO OUTPUT CONTROL FOR STRESS PERIOD   25   TIME STEP   30



 STREAM LISTING     PERIOD     25   STEP       30

 LAYER ROW COL. STREAM  RCH.  FLOW INTO     FLOW TO   FLOW OUT OF   OVRLND.     DIRECT     STREAM       STREAM     STREAM     STREAM   STREAMBED  STREAMBED
                SEG.NO.  NO.  STRM. RCH.    AQUIFER    STRM. RCH.    RUNOFF     PRECIP       ET          HEAD       DEPTH      WIDTH   CONDCTNC.   GRADIENT

   1    1    1     1     1    3.5000E+00  8.3255E-02   3.4167E+00  0.000E+00  0.000E+00  0.000E+00  1.09371E+03  6.654E-01  5.047E+00  2.271E-02  1.222E+00
   1    2    2     1     2    3.4167E+00  1.2792E-01   3.2888E+00  0.000E+00  0.000E+00  0.000E+00  1.08872E+03  6.583E-01  4.995E+00  3.497E-02  1.219E+00
   1    3    3     1     3    3.2888E+00  1.0809E-01   3.1807E+00  0.000E+00  0.000E+00  0.000E+00  1.08307E+03  6.502E-01  4.935E+00  2.961E-02  1.217E+00
   1    3    4     1     4    3.1807E+00  9.8702E-02   3.0820E+00  0.000E+00  0.000E+00  0.000E+00  1.07805E+03  6.428E-01  4.882E+00  2.709E-02  1.214E+00
   1    4    5     2     1    1.0820E+00  2.4731E-01   8.3473E-01  0.000E+00  0.000E+00  0.000E+00  1.07210E+03  1.706E-01  1.200E+01  7.800E-02  1.057E+00
   1    5    6     2     2    8.3473E-01  1.8877E-01   6.4596E-01  0.000E+00  0.000E+00  0.000E+00  1.06666E+03  1.462E-01  1.200E+01  6.000E-02  1.049E+00
   1    6    6     2     3    6.4596E-01  1.8736E-01   4.5860E-01  0.000E+00  0.000E+00  0.000E+00  1.06192E+03  1.226E-01  1.200E+01  6.000E-02  1.041E+00
   1    7    6     2     4    4.5860E-01  1.8574E-01   2.7286E-01  0.000E+00  0.000E+00  0.000E+00  1.05717E+03  9.573E-02  1.200E+01  6.000E-02  1.032E+00
   1    8    6     2     5    2.7286E-01  1.8377E-01   8.9092E-02  0.000E+00  0.000E+00  0.000E+00  1.05242E+03  6.276E-02  1.200E+01  6.000E-02  1.021E+00
   1    3    5     3     1    2.0000E+00  2.8252E-01   1.7175E+00  0.000E+00  0.000E+00  0.000E+00  1.07555E+03  1.909E+00  9.636E+00  7.227E-02  1.955E+00
   1    3    6     3     2    1.7175E+00  2.4905E-01   1.4684E+00  0.000E+00  0.000E+00  0.000E+00  1.07264E+03  1.727E+00  8.909E+00  6.682E-02  1.864E+00
   1    3    7     3     3    1.4684E+00  1.9718E-01   1.2712E+00  0.000E+00  0.000E+00  0.000E+00  1.06987E+03  1.555E+00  8.218E+00  5.547E-02  1.777E+00
   1    4    8     3     4    1.2712E+00  2.2567E-01   1.0456E+00  0.000E+00  0.000E+00  0.000E+00  1.06682E+03  1.364E+00  7.455E+00  6.709E-02  1.682E+00
   1    5    8     3     5    1.0456E+00  1.5790E-01   8.8768E-01  0.000E+00  0.000E+00  0.000E+00  1.06362E+03  1.164E+00  6.655E+00  4.991E-02  1.582E+00
   1    6    8     3     6    8.8768E-01  5.5980E-02   8.3170E-01  0.000E+00  0.000E+00  0.000E+00  1.06158E+03  1.036E+00  6.145E+00  1.844E-02  1.518E+00
   1    5   10     4     1    1.0000E+01  9.0919E-02   9.9091E+00  0.000E+00  0.000E+00  0.000E+00  1.07836E+03  6.368E-01  1.000E+01  2.500E-02  1.212E+00
   1    5    9     4     2    9.9091E+00  1.8158E-01   9.7275E+00  0.000E+00  0.000E+00  0.000E+00  1.07154E+03  6.315E-01  1.000E+01  5.000E-02  1.211E+00
   1    6    8     4     3    9.7275E+00  1.2689E-01   9.6006E+00  0.000E+00  0.000E+00  0.000E+00  1.06381E+03  6.256E-01  1.000E+01  3.500E-02  1.209E+00
   1    6    8     5     1    1.0432E+01  2.2686E-01   1.0205E+01  0.000E+00  0.000E+00  0.000E+00  1.05868E+03  6.790E-01  1.542E+01  6.166E-02  1.226E+00
   1    7    7     5     2    1.0205E+01  2.7894E-01   9.9265E+00  0.000E+00  0.000E+00  0.000E+00  1.05417E+03  6.732E-01  1.519E+01  7.594E-02  1.224E+00
   1    8    7     5     3    9.9265E+00  1.9221E-01   9.7343E+00  0.000E+00  0.000E+00  0.000E+00  1.04992E+03  6.676E-01  1.497E+01  5.241E-02  1.223E+00
   1    8    6     5     4    9.7343E+00  1.3577E-01   9.5985E+00  0.000E+00  0.000E+00  0.000E+00  1.04691E+03  6.637E-01  1.482E+01  3.706E-02  1.221E+00
   1    9    6     6     1    9.6876E+00  2.2120E-01   9.4664E+00  0.000E+00  0.000E+00  0.000E+00  1.04341E+03  6.866E-01  1.200E+01  6.000E-02  1.229E+00
   1   10    7     6     2    9.4664E+00  2.2062E-01   9.2458E+00  0.000E+00  0.000E+00  0.000E+00  1.03886E+03  6.771E-01  1.200E+01  6.000E-02  1.226E+00
   1   11    7     6     3    9.2458E+00  2.2005E-01   9.0258E+00  0.000E+00  0.000E+00  0.000E+00  1.03430E+03  6.674E-01  1.200E+01  6.000E-02  1.222E+00
   1   12    7     6     4    9.0258E+00  2.1947E-01   8.8063E+00  0.000E+00  0.000E+00  0.000E+00  1.02975E+03  6.578E-01  1.200E+01  6.000E-02  1.219E+00
   1   13    7     6     5    8.8063E+00 -2.1335E-01   9.0196E+00  0.000E+00  0.000E+00  0.000E+00  1.02657E+03  6.576E-01  1.200E+01  2.400E-01 -2.963E-01
   1   14    9     7     1    1.5000E+02  1.1902E+00   1.4881E+02  0.000E+00  0.000E+00  0.000E+00  1.03987E+03  2.288E+00  5.530E+01  5.593E-01  7.093E-01
   1   13    8     7     2    1.4881E+02  1.6313E+00   1.4718E+02  0.000E+00  0.000E+00  0.000E+00  1.03478E+03  2.281E+00  5.526E+01  6.148E-01  8.844E-01
   1   13    7     7     3    1.4718E+02  1.2493E+00   1.4593E+02  0.000E+00  0.000E+00  0.000E+00  1.02969E+03  2.273E+00  5.523E+01  5.586E-01  7.455E-01
   1   13    6     8     1    1.5495E+02  6.1994E-01   1.5433E+02  0.000E+00  0.000E+00  0.000E+00  1.02472E+03  2.849E+00  4.131E+01  4.210E-01  4.909E-01
   1   13    5     8     2    1.5433E+02 -5.0047E-01   1.5483E+02  0.000E+00  0.000E+00  0.000E+00  1.01847E+03  2.849E+00  4.131E+01  4.209E+00 -3.963E-02
   1   13    4     8     3    1.5483E+02 -3.4700E+00   1.5830E+02  0.000E+00  0.000E+00  0.000E+00  1.01224E+03  2.862E+00  4.151E+01  4.230E+00 -2.735E-01
   1   13    3     8     4    1.5830E+02 -4.3093E+00   1.6261E+02  0.000E+00  0.000E+00  0.000E+00  1.00601E+03  2.889E+00  4.189E+01  4.269E+00 -3.365E-01
   1   13    2     8     5    1.6261E+02 -2.8197E+00   1.6543E+02  0.000E+00  0.000E+00  0.000E+00  9.99788E+02  2.913E+00  4.224E+01  4.304E+00 -2.184E-01
   1   13    1     8     6    1.6543E+02 -2.0510E+00   1.6748E+02  0.000E+00  0.000E+00  0.000E+00  9.94804E+02  2.929E+00  4.247E+01  2.597E+00 -2.633E-01
   1    6    8     9     1    0.0000E+00  0.0000E+00   0.0000E+00  0.000E+00  0.000E+00  0.000E+00  1.07850E+03  0.000E+00  4.000E+00  0.000E+00  1.000E+00





UNSATURATED ZONE PACKAGE VOLUMETRIC BUDGET FOR  TIME STEP    30 STRESS PERIOD   25
  ------------------------------------------------------------------------------



     CUMULATIVE VOLUMES      L**3       RATES FOR THIS TIME STEP      L**3/T
     ------------------                 ------------------------

           IN:                                      IN:
           ---                                      ---
        INFILTRATION =    78356297.8346          INFILTRATION =       0.0000E+00

          OUT:                                     OUT:
          ----                                     ----
              UZF ET =   602773410.1707                UZF ET =           0.0025
        UZF RECHARGE =  1384069976.9483          UZF RECHARGE =          16.9060

            IN - OUT = -1908487089.2844              IN - OUT =         -16.9085

          STORAGE:                                 STORAGE:
          --------                                 --------
      STORAGE CHANGE = -1908461336.0624        STORAGE CHANGE =         -16.9085

 PERCENT DISCREPANCY IS DIFFERENCE BETWEEN IN-OUT MINUS CHANGE IN STORAGE
 DIVIDED BY THE AVERAGE OF IN AND OUT TIMES 100

 PERCENT DISCREPANCY =          -0.00     PERCENT DISCREPANCY =           0.00






1
  VOLUMETRIC BUDGET FOR ENTIRE MODEL AT END OF TIME STEP   30, STRESS PERIOD  25
  ------------------------------------------------------------------------------

     CUMULATIVE VOLUMES      L**3       RATES FOR THIS TIME STEP      L**3/T
     ------------------                 ------------------------

           IN:                                      IN:
           ---                                      ---
             STORAGE     =    80614640.0000               STORAGE     =           0.1289
       CONSTANT HEAD     =           0.0000         CONSTANT HEAD     =           0.0000
               WELLS     =           0.0000                 WELLS     =           0.0000
     HEAD DEP BOUNDS     =    17376674.0000       HEAD DEP BOUNDS     =           0.2758
      STREAM LEAKAGE     =   689654912.0000        STREAM LEAKAGE     =           9.3844
        UZF RECHARGE     =  1384071040.0000          UZF RECHARGE     =          16.9060
               GW ET     =           0.0000                 GW ET     =           0.0000
     SURFACE LEAKAGE     =           0.0000       SURFACE LEAKAGE     =           0.0000
    SUPPLEMENTARY WELLS  =           0.0000      SUPPLEMENTARY WELLS  =           0.0000

                TOTAL IN =  2171717120.0000                  TOTAL IN =          26.6952

          OUT:                                     OUT:
          ----                                     ----
             STORAGE     =  1285417344.0000               STORAGE     =          13.0234
       CONSTANT HEAD     =           0.0000         CONSTANT HEAD     =           0.0000
               WELLS     =           0.0000                 WELLS     =           0.0000
     HEAD DEP BOUNDS     =    18111320.0000       HEAD DEP BOUNDS     =           0.2886
      STREAM LEAKAGE     =   682744896.0000        STREAM LEAKAGE     =          13.3638
        UZF RECHARGE     =           0.0000          UZF RECHARGE     =           0.0000
               GW ET     =   182082944.0000                 GW ET     =       1.7500E-02
     SURFACE LEAKAGE     =           0.0000       SURFACE LEAKAGE     =           0.0000
    SUPPLEMENTARY WELLS  =     3166757.2500      SUPPLEMENTARY WELLS  =           0.0000

               TOTAL OUT =  2171523072.0000                 TOTAL OUT =          26.6933

                IN - OUT =      194048.0000                  IN - OUT =       1.8616E-03

     PERCENT DISCREPANCY =           0.01         PERCENT DISCREPANCY =           0.01






         TIME SUMMARY AT END OF TIME STEP   30 IN STRESS PERIOD   25
                    SECONDS     MINUTES      HOURS       DAYS        YEARS
                    -----------------------------------------------------------
   TIME STEP LENGTH  87600.      1460.0      24.333      1.0139     2.77588E-03
 STRESS PERIOD TIME 2.62800E+06  43800.      730.00      30.417     8.32763E-02
         TOTAL TIME 6.31584E+07 1.05264E+06  17544.      731.00      2.0014    
1

 Run end date and time (yyyy/mm/dd hh:mm:ss): 2017/10/20 16:56:02
 Elapsed run time:  1 Minutes, 13.441 Seconds

