                                  MODFLOW-NWT-SWR1 
      U.S. GEOLOGICAL SURVEY MODULAR FINITE-DIFFERENCE GROUNDWATER-FLOW MODEL
                            VERSION 1.1.3, 8/01/2017
                    BASED ON MODFLOW-2005 VERSION 1.11.00 08/08/2013

 LIST FILE: wellsuppirr.lst
                         UNIT    9

 OPENING wellsuppirr.ba6
 FILE TYPE:BAS6   UNIT   75   STATUS:OLD    
 FORMAT:FORMATTED              ACCESS:SEQUENTIAL          

 OPENING wellsuppirr.upw
 FILE TYPE:UPW   UNIT    7   STATUS:OLD    
 FORMAT:FORMATTED              ACCESS:SEQUENTIAL          

 OPENING wellsuppirr.dis
 FILE TYPE:DIS   UNIT    8   STATUS:OLD    
 FORMAT:FORMATTED              ACCESS:SEQUENTIAL          

 OPENING wellsuppirr.nwt
 FILE TYPE:NWT   UNIT   13   STATUS:OLD    
 FORMAT:FORMATTED              ACCESS:SEQUENTIAL          

 OPENING wellsuppirr.oc
 FILE TYPE:OC   UNIT   14   STATUS:OLD    
 FORMAT:FORMATTED              ACCESS:SEQUENTIAL          

 OPENING wellsuppirr.sfr
 FILE TYPE:SFR   UNIT   15   STATUS:OLD    
 FORMAT:FORMATTED              ACCESS:SEQUENTIAL          

 OPENING wellsuppirr.wel
 FILE TYPE:WEL   UNIT   16   STATUS:OLD    
 FORMAT:FORMATTED              ACCESS:SEQUENTIAL          

 OPENING wellsuppirr.ghb
 FILE TYPE:GHB   UNIT   17   STATUS:OLD    
 FORMAT:FORMATTED              ACCESS:SEQUENTIAL          

 OPENING wellsuppirr.uzf
 FILE TYPE:UZF   UNIT   19   STATUS:OLD    
 FORMAT:FORMATTED              ACCESS:SEQUENTIAL          

 OPENING wellsuppirr.gag
 FILE TYPE:GAGE   UNIT   32   STATUS:OLD    
 FORMAT:FORMATTED              ACCESS:SEQUENTIAL          

 OPENING seg1.tab
 FILE TYPE:DATA   UNIT   55   STATUS:UNKNOWN
 FORMAT:FORMATTED              ACCESS:SEQUENTIAL          

 OPENING seg9.tab
 FILE TYPE:DATA   UNIT   56   STATUS:UNKNOWN
 FORMAT:FORMATTED              ACCESS:SEQUENTIAL          

 OPENING wellsuppirr.irs
 FILE TYPE:DATA   UNIT   58   STATUS:UNKNOWN
 FORMAT:FORMATTED              ACCESS:SEQUENTIAL          

 OPENING wellsuppirr.irr
 FILE TYPE:DATA   UNIT   59   STATUS:UNKNOWN
 FORMAT:FORMATTED              ACCESS:SEQUENTIAL          

 OPENING wellsuppirr.sup
 FILE TYPE:DATA   UNIT   60   STATUS:UNKNOWN
 FORMAT:FORMATTED              ACCESS:SEQUENTIAL          

 OPENING wellsuppirr.hed
 FILE TYPE:DATA   UNIT   62   STATUS:UNKNOWN
 FORMAT:FORMATTED              ACCESS:SEQUENTIAL          

 OPENING wellsuppirr.uzfot
 FILE TYPE:DATA(BINARY)   UNIT   61   STATUS:UNKNOWN
 FORMAT:BINARY                 ACCESS:SEQUENTIAL          

 OPENING netfluxin.unf
 FILE TYPE:DATA(BINARY)   UNIT  100   STATUS:UNKNOWN
 FORMAT:BINARY                 ACCESS:SEQUENTIAL          

 OPENING netfluxout.unf
 FILE TYPE:DATA(BINARY)   UNIT  101   STATUS:UNKNOWN
 FORMAT:BINARY                 ACCESS:SEQUENTIAL          

 OPENING cbc.unf
 FILE TYPE:DATA(BINARY)   UNIT  102   STATUS:UNKNOWN
 FORMAT:BINARY                 ACCESS:SEQUENTIAL          

 OPENING wellsuppirr.uzf1
 FILE TYPE:DATA   UNIT   65   STATUS:UNKNOWN
 FORMAT:FORMATTED              ACCESS:SEQUENTIAL          

 OPENING wellsuppirr.uzf2
 FILE TYPE:DATA   UNIT   66   STATUS:UNKNOWN
 FORMAT:FORMATTED              ACCESS:SEQUENTIAL          

 OPENING wellsuppirr.uzf3
 FILE TYPE:DATA   UNIT   67   STATUS:UNKNOWN
 FORMAT:FORMATTED              ACCESS:SEQUENTIAL          

 OPENING wellsuppirr.uzf4
 FILE TYPE:DATA   UNIT   68   STATUS:UNKNOWN
 FORMAT:FORMATTED              ACCESS:SEQUENTIAL          

 OPENING wellsuppirr.flw
 FILE TYPE:DATA   UNIT   81   STATUS:UNKNOWN
 FORMAT:FORMATTED              ACCESS:SEQUENTIAL          

 OPENING wellsuppirr.sg1
 FILE TYPE:DATA   UNIT   83   STATUS:UNKNOWN
 FORMAT:FORMATTED              ACCESS:SEQUENTIAL          

 OPENING wellsuppirr.sg2
 FILE TYPE:DATA   UNIT   84   STATUS:UNKNOWN
 FORMAT:FORMATTED              ACCESS:SEQUENTIAL          

 OPENING wellsuppirr.sg3
 FILE TYPE:DATA   UNIT   85   STATUS:UNKNOWN
 FORMAT:FORMATTED              ACCESS:SEQUENTIAL          

 OPENING wellsuppirr.sg4
 FILE TYPE:DATA   UNIT   86   STATUS:UNKNOWN
 FORMAT:FORMATTED              ACCESS:SEQUENTIAL          

 OPENING wellsuppirr.sg5
 FILE TYPE:DATA   UNIT   87   STATUS:UNKNOWN
 FORMAT:FORMATTED              ACCESS:SEQUENTIAL          

 OPENING wellsuppirr.sg6
 FILE TYPE:DATA   UNIT   88   STATUS:UNKNOWN
 FORMAT:FORMATTED              ACCESS:SEQUENTIAL          

 OPENING wellsuppirr.sg7
 FILE TYPE:DATA   UNIT   89   STATUS:UNKNOWN
 FORMAT:FORMATTED              ACCESS:SEQUENTIAL          

 OPENING wellsuppirr.sg8
 FILE TYPE:DATA   UNIT   90   STATUS:UNKNOWN
 FORMAT:FORMATTED              ACCESS:SEQUENTIAL          

 OPENING wellsuppirr.sg9
 FILE TYPE:DATA   UNIT   91   STATUS:UNKNOWN
 FORMAT:FORMATTED              ACCESS:SEQUENTIAL          

 BAS -- BASIC PACKAGE, VERSION 1.1.3, 8/01/2017 INPUT READ FROM UNIT   75
 
 MODFLOW was compiled using mixed precision
 Precision of REAL variables:           6
 Precision of DOUBLE PRECISION variables:          15

 DISCRETIZATION INPUT DATA READ FROM UNIT    8
 #Test problem 2-- Discretization input
 #Example problem using the UZF1 Package
    1 LAYERS        15 ROWS        10 COLUMNS
   25 STRESS PERIOD(S) IN SIMULATION
 MODEL TIME UNIT IS SECONDS
 MODEL LENGTH UNIT IS FEET
  Confining bed flag for each layer:
   0

                     DELR =   5000.00    

                     DELC =   5000.00    



           TOP ELEVATION OF LAYER 1
 READING ON UNIT    8 WITH FORMAT: (10F7.0)            

            1           2           3           4           5           6           7           8           9          10
 ........................................................................................................................
   1    1105.       1105.       0.000       0.000       0.000       0.000       0.000       0.000       0.000       0.000    
   2    1105.       1095.       1105.       0.000       0.000       1100.       1100.       1110.       0.000       0.000    
   3    0.000       1100.       1085.       1080.       1078.       1076.       1073.       1090.       0.000       0.000    
   4    1110.       1100.       1090.       1085.       1076.       1080.       1080.       1070.       1100.       0.000    
   5    1110.       1100.       1085.       1080.       1078.       1074.       1077.       1066.       1075.       1080.    
   6    1105.       1095.       1080.       1077.       1073.       1069.       1070.       1063.       1085.       1095.    
   7    1105.       1090.       1075.       1072.       1070.       1065.       1065.       1069.       1090.       0.000    
   8    0.000       1080.       1070.       1068.       1063.       1060.       1063.       1067.       1090.       0.000    
   9    0.000       1075.       1065.       1062.       1058.       1052.       1055.       1065.       1090.       0.000    
  10    0.000       1070.       1060.       1055.       1046.       1046.       1044.       1060.       1088.       1100.    
  11    0.000       1055.       1050.       1045.       1041.       1042.       1040.       1050.       1075.       0.000    
  12    1027.       1028.       1028.       1032.       1032.       1033.       1032.       1040.       1060.       0.000    
  13    997.0       1004.       1008.       1014.       1020.       1027.       1032.       1038.       1050.       0.000    
  14    0.000       1030.       1040.       1045.       1050.       1050.       1050.       1050.       1044.       0.000    
  15    0.000       0.000       1080.       1080.       1080.       1080.       0.000       0.000       0.000       0.000    



             MODEL LAYER BOTTOM EL. FOR LAYER   1
 READING ON UNIT    8 WITH FORMAT: (10F7.0)            

            1           2           3           4           5           6           7           8           9          10
 ........................................................................................................................
   1    1000.       1000.       0.000       0.000       0.000       0.000       0.000       0.000       0.000       0.000    
   2    1000.       900.0       900.0       0.000       0.000       950.0       950.0       950.0       0.000       0.000    
   3    0.000       850.0       670.0       680.0       680.0       770.0       770.0       890.0       0.000       0.000    
   4    925.0       850.0       650.0       650.0       650.0       680.0       740.0       850.0       950.0       0.000    
   5    925.0       800.0       650.0       600.0       600.0       600.0       650.0       720.0       850.0       950.0    
   6    925.0       800.0       650.0       600.0       550.0       600.0       650.0       720.0       850.0       970.0    
   7    925.0       800.0       650.0       600.0       550.0       600.0       650.0       720.0       950.0       0.000    
   8    0.000       850.0       700.0       650.0       570.0       600.0       700.0       850.0       950.0       0.000    
   9    0.000       850.0       700.0       650.0       540.0       580.0       700.0       850.0       950.0       0.000    
  10    0.000       850.0       700.0       630.0       530.0       580.0       650.0       800.0       900.0       950.0    
  11    0.000       850.0       700.0       620.0       580.0       620.0       700.0       800.0       900.0       0.000    
  12    900.0       830.0       710.0       640.0       600.0       650.0       700.0       800.0       900.0       0.000    
  13    900.0       810.0       750.0       700.0       650.0       700.0       750.0       800.0       900.0       0.000    
  14    0.000       950.0       850.0       850.0       850.0       850.0       850.0       850.0       850.0       0.000    
  15    0.000       0.000       950.0       950.0       950.0       950.0       0.000       0.000       0.000       0.000    


 STRESS PERIOD     LENGTH       TIME STEPS     MULTIPLIER FOR DELT    SS FLAG
 ----------------------------------------------------------------------------
        1         2628000.          1                    1.000         SS
        2         2628000.         30                    1.000         TR
        3         2628000.         30                    1.000         TR
        4         2628000.         30                    1.000         TR
        5         2628000.         30                    1.000         TR
        6         2628000.         30                    1.000         TR
        7         2628000.         30                    1.000         TR
        8         2628000.         30                    1.000         TR
        9         2628000.         30                    1.000         TR
       10         2628000.         30                    1.000         TR
       11         2628000.         30                    1.000         TR
       12         2628000.         30                    1.000         TR
       13         2628000.         30                    1.000         TR
       14         2628000.         30                    1.000         TR
       15         2628000.         30                    1.000         TR
       16         2628000.         30                    1.000         TR
       17         2628000.         30                    1.000         TR
       18         2628000.         30                    1.000         TR
       19         2628000.         30                    1.000         TR
       20         2628000.         30                    1.000         TR
       21         2628000.         30                    1.000         TR
       22         2628000.         30                    1.000         TR
       23         2628000.         30                    1.000         TR
       24         2628000.         30                    1.000         TR
       25         2628000.         30                    1.000         TR

 COMBINED STEADY-STATE AND TRANSIENT SIMULATION



 
 #Test Simulation 2-- Example problem using the UZF1 Package                     
 #Modified from example Problem 1 of SFR1 documentation report                   
 THE FREE FORMAT OPTION HAS BEEN SELECTED



                     BOUNDARY ARRAY FOR LAYER   1
 READING ON UNIT   75 WITH FORMAT: (20I4)              

                1           2           3           4           5           6           7           8           9          10
 ............................................................................................................................
   1            1           1           0           0           0           0           0           0           0           0
   2            1           1           1           0           0           1           1           1           0           0
   3            0           1           1           1           1           1           1           1           0           0
   4            1           1           1           1           1           1           1           1           1           0
   5            1           1           1           1           1           1           1           1           1           1
   6            1           1           1           1           1           1           1           1           1           1
   7            1           1           1           1           1           1           1           1           1           0
   8            0           1           1           1           1           1           1           1           1           0
   9            0           1           1           1           1           1           1           1           1           0
  10            0           1           1           1           1           1           1           1           1           1
  11            0           1           1           1           1           1           1           1           1           0
  12            1           1           1           1           1           1           1           1           1           0
  13            1           1           1           1           1           1           1           1           1           0
  14            0           1           1           1           1           1           1           1           1           0
  15            0           0           1           1           1           1           0           0           0           0

 AQUIFER HEAD WILL BE SET TO   6999.0     AT ALL NO-FLOW NODES (IBOUND=0).



                       INITIAL HEAD FOR LAYER   1
 READING ON UNIT   75 WITH FORMAT: (10F8.0)            

            1           2           3           4           5           6           7           8           9          10
 ........................................................................................................................
   1    1093.       1089.       6999.       6999.       6999.       6999.       6999.       6999.       6999.       6999.    
   2    1090.       1087.       1081.       6999.       6999.       1072.       1071.       1071.       6999.       6999.    
   3    6999.       1079.       1078.       1074.       1072.       1071.       1069.       1068.       6999.       6999.    
   4    1069.       1071.       1070.       1067.       1065.       1064.       1064.       1066.       1066.       6999.    
   5    1065.       1064.       1063.       1062.       1061.       1061.       1060.       1062.       1066.       1068.    
   6    1060.       1058.       1057.       1056.       1056.       1057.       1057.       1059.       1062.       1066.    
   7    1056.       1053.       1052.       1051.       1051.       1052.       1053.       1055.       1056.       6999.    
   8    6999.       1046.       1046.       1046.       1046.       1046.       1048.       1050.       1050.       6999.    
   9    6999.       1039.       1039.       1039.       1040.       1041.       1042.       1043.       1044.       6999.    
  10    6999.       1031.       1032.       1033.       1034.       1035.       1037.       1038.       1039.       1042.    
  11    6999.       1021.       1023.       1027.       1029.       1030.       1032.       1034.       1036.       6999.    
  12    1001.       1009.       1015.       1020.       1023.       1026.       1029.       1030.       1034.       6999.    
  13    994.5      1000.0       1007.       1013.       1019.       1024.       1029.       1034.       1036.       6999.    
  14    6999.       1004.       1009.       1014.       1019.       1024.       1029.       1035.       1039.       6999.    
  15    6999.       6999.       1012.       1015.       1019.       1022.       6999.       6999.       6999.       6999.    

 OUTPUT CONTROL IS SPECIFIED ONLY AT TIME STEPS FOR WHICH OUTPUT IS DESIRED
 HEADS WILL BE SAVED WITH FORMAT: (10F10.3)           
 SAVED HEADS WILL BE LABELED
 HEAD PRINT FORMAT CODE IS   4    DRAWDOWN PRINT FORMAT CODE IS   0
 HEADS WILL BE SAVED ON UNIT   62    DRAWDOWNS WILL BE SAVED ON UNIT    0
 # NWT Input File
 # Test Problem 3 for MODFLOW-NWT
 #HEADTOL  FLUXTOL MAXITEROUT THICKFACT LINMETH IPRNWT IBOTAV OPTIONS DBDREDUCE DBDINCREASE DBDGAMMA MOMFACT BACKFLAG MAXBACKITER BACKTOL BACKREDUCE

 NWT1 -- Newton Solver, VERSION 1.1.3, 8/01/2017
         INPUT READ FROM UNIT 13

 SPECIFIED OPTION:
 SOLVER INPUT VALUES ARE SPECIFIED BY USER
 ***XMD linear solver will be used***
 
   CONVERGENCE CRITERION OF   0.100000E-04 FOR HEAD SOLUTION
   AND A TOLERANCE OF   0.100000E+03 FOR FLOW SOLUTION AND 
   A MAXIMUM OF   200 OUTER ITERATIONS. 


   D-B-D REDUCTION FACTOR OF    0.990000E+00 AND 
   A D-B-D INCREASE FACTOR OF    0.100000E-04 AND 
   A D-B-D RELAXATION OF    0.000000E+00 AND 
   A MOMENTUM FACTOR OF    0.100000E+00 .


 ***BACKTRACKING IS INACTIVE***
 XMD -- LINEAR SOLUTION BY XMD PACKAGE VERSION 1.30
     BY MOTOMU IBARAKI, OHIO STATE UNIVERSITY, COLOMBUS, OH
                 INPUT READ FROM UNIT 13
 ACCELERATION METHOD                    (IACL) =         2
 NODE ORDERING FLAG                   (NORDER) =         0
 LEVEL OF FILL                         (LEVEL) =        10
 MAXIMUM NUMBER OF ORTHOGONALIZATIONS  (NORTH) =        10
 INDEX FOR USING REDUCED SYSTEM      (IREDSYS) =         1
 RESID. REDUCTION CONVERGE CRITERION  (RRCTOL) =  0.000000E+00
 INDEX FOR USING DROP TOLERANCE     (IDROPTOL) =         1
 DROP TOLERANCE VALUE                  (EPSRN) =  0.500000E-02
 CONVERGENCE CRITERIA OF           (HCLOSEXMD) =  0.100000E-03
 MAX. NUMBER OF LINEAR ITERATIONS  (MXITERXMD) =        50


 UPW1 -- UPSTREAM WEIGHTING FLOW PACKAGE, VERSION 1.1.3, 8/01/2017
         INPUT READ FROM UNIT  7

 #Layer-Property Flow Package input for test simulation 2
 CELL-BY-CELL FLOWS WILL BE SAVED ON UNIT  102
 No named parameters

   LAYER FLAGS:
 LAYER       LAYTYP          LAYAVG    CHANI           LAYVKA           LAYWET
 ---------------------------------------------------------------------------
    1             1             0     1.000E+00             0             0

   INTERPRETATION OF LAYER FLAGS:
                        INTERBLOCK     HORIZONTAL    DATA IN
         LAYER TYPE   TRANSMISSIVITY   ANISOTROPY   ARRAY VKA   WETTABILITY
 LAYER   (LAYTYP)        (LAYAVG)      (CHANI)     (LAYVKA)       (LAYWET)
 ---------------------------------------------------------------------------
    1   CONVERTIBLE      HARMONIC     1.000E+00    VERTICAL K  NON-WETTABLE



              HYD. COND. ALONG ROWS FOR LAYER   1
 READING ON UNIT    7 WITH FORMAT: (10F5.0)            

            1           2           3           4           5           6           7           8           9          10
 ........................................................................................................................
   1   2.0000E-03  2.0000E-03   0.000       0.000       0.000       0.000       0.000       0.000       0.000       0.000    
   2   4.0000E-04  2.0000E-03  2.0000E-03   0.000       0.000      4.0000E-04  4.0000E-04  4.0000E-04   0.000       0.000    
   3    0.000      4.0000E-04  2.0000E-03  2.0000E-03  4.0000E-04  4.0000E-04  4.0000E-04  4.0000E-04   0.000       0.000    
   4   4.0000E-04  4.0000E-04  4.0000E-04  2.0000E-03  2.0000E-03  2.0000E-03  4.0000E-04  4.0000E-04  4.0000E-04   0.000    
   5   4.0000E-04  4.0000E-04  4.0000E-04  2.0000E-03  2.0000E-03  2.0000E-03  2.0000E-03  2.0000E-03  2.0000E-03  2.0000E-03
   6   4.0000E-04  4.0000E-04  4.0000E-04  2.0000E-03  2.0000E-03  2.0000E-03  2.0000E-03  2.0000E-03  4.0000E-04  4.0000E-04
   7   4.0000E-04  4.0000E-04  4.0000E-04  2.0000E-03  2.0000E-03  2.0000E-03  2.0000E-03  2.0000E-03  4.0000E-04   0.000    
   8    0.000      4.0000E-04  4.0000E-04  2.0000E-03  2.0000E-03  2.0000E-03  2.0000E-03  4.0000E-04  4.0000E-04   0.000    
   9    0.000      4.0000E-04  4.0000E-04  2.0000E-03  2.0000E-03  2.0000E-03  2.0000E-03  4.0000E-04  4.0000E-04   0.000    
  10    0.000      4.0000E-04  4.0000E-04  2.0000E-03  2.0000E-03  2.0000E-03  2.0000E-03  4.0000E-04  4.0000E-04  4.0000E-04
  11    0.000      4.0000E-04  4.0000E-04  2.0000E-03  2.0000E-03  2.0000E-03  2.0000E-03  4.0000E-04  4.0000E-04   0.000    
  12   4.0000E-04  4.0000E-04  2.0000E-03  2.0000E-03  2.0000E-03  2.0000E-03  2.0000E-03  4.0000E-04  4.0000E-04   0.000    
  13   2.0000E-03  2.0000E-03  2.0000E-03  2.0000E-03  2.0000E-03  2.0000E-03  2.0000E-03  2.0000E-03  2.0000E-03   0.000    
  14    0.000      4.0000E-04  4.0000E-04  4.0000E-04  4.0000E-04  4.0000E-04  4.0000E-04  4.0000E-04  2.0000E-03   0.000    
  15    0.000       0.000      4.0000E-04  4.0000E-04  4.0000E-04  4.0000E-04   0.000       0.000       0.000       0.000    

      VERTICAL HYD. COND. =  1.000000E-06 FOR LAYER   1

         SPECIFIC STORAGE =  1.000000E-06 FOR LAYER   1



                     SPECIFIC YIELD FOR LAYER   1
 READING ON UNIT    7 WITH FORMAT: (10F5.0)            

            1           2           3           4           5           6           7           8           9          10
 ........................................................................................................................
   1   0.2000      0.2000       0.000       0.000       0.000       0.000       0.000       0.000       0.000       0.000    
   2   0.1000      0.2000      0.2000       0.000       0.000      0.1000      0.1000      0.1000       0.000       0.000    
   3    0.000      0.1000      0.2000      0.2000      0.1000      0.1000      0.1000      0.1000       0.000       0.000    
   4   0.1000      0.1000      0.1000      0.2000      0.2000      0.2000      0.1000      0.1000      0.1000       0.000    
   5   0.1000      0.1000      0.1000      0.2000      0.2000      0.2000      0.2000      0.2000      0.2000      0.2000    
   6   0.1000      0.1000      0.1000      0.2000      0.2000      0.2000      0.2000      0.2000      0.1000      0.1000    
   7   0.1000      0.1000      0.1000      0.2000      0.2000      0.2000      0.2000      0.2000      0.1000       0.000    
   8    0.000      0.1000      0.1000      0.2000      0.2000      0.2000      0.2000      0.1000      0.1000       0.000    
   9    0.000      0.1000      0.1000      0.2000      0.2000      0.2000      0.2000      0.1000      0.1000       0.000    
  10    0.000      0.1000      0.1000      0.2000      0.2000      0.2000      0.2000      0.1000      0.1000      0.1000    
  11    0.000      0.1000      0.1000      0.2000      0.2000      0.2000      0.2000      0.1000      0.1000       0.000    
  12   0.1000      0.1000      0.2000      0.2000      0.2000      0.2000      0.2000      0.1000      0.1000       0.000    
  13   0.2000      0.2000      0.2000      0.2000      0.2000      0.2000      0.2000      0.2000      0.2000       0.000    
  14    0.000      0.1000      0.1000      0.1000      0.1000      0.1000      0.1000      0.1000      0.2000       0.000    
  15    0.000       0.000      0.1000      0.1000      0.1000      0.1000       0.000       0.000       0.000       0.000    

 WEL -- WELL PACKAGE FOR NWT VERSION 1.1.2,  9/15/2016 INPUT READ FROM UNIT   16
 #Well Package input for test simulation 2
 No named parameters

 PROCESSING                  OPTIONS
  Option to pump supplmental water for surface diversion shortfall is activted.  A total of          1supplemental wells are active
  Option to apply pumped water as irrigtion is active. 'Pumped irrigation water will be applied to          1 UZF Cells.

 END PROCESSING                  OPTIONS
 MAXIMUM OF     10 ACTIVE WELLS AT ONE TIME
 No named parameters
  PHIRAMP WILL BE SET TO A DEFAULT VALUE OF 1.0E-5
  WELLS WITH REDUCED PUMPING WILL BE REPORTED TO THE MAIN LISTING FILE


     0 Well parameters

 GHB -- GENERAL-HEAD BOUNDARY PACKAGE, VERSION 7, 5/2/2005
         INPUT READ FROM UNIT   17
 No named parameters
 MAXIMUM OF      2 ACTIVE GHB CELLS AT ONE TIME
 CELL-BY-CELL FLOWS WILL BE PRINTED WHEN ICBCFL NOT 0


     0 GHB parameters

 SFR7 -- STREAMFLOW ROUTING PACKAGE, VERSION 1.0.5, 2012-04-05
         INPUT READ FROM UNIT  15
 #SFR2 Package input for Testing supplimental pumping and irrigation
 No named parameters

 PROCESSING SFR2 OPTIONS
 
Stream loss will be calculated as a factor of the streambed hydraulic conductivity. Multiplication factor is equal to     0.1000000015E+00
          2 Specified inflow files will be read with a maximum of        759 row entries per file
 Option to apply diverted water as irrigtion is active.diverted irrigation water will be applied to          1 UZF Cells.

 END PROCESSING SFR2 OPTIONS


 NUMBER OF STREAM REACHES IS   37

 NUMBER OF STREAM SEGMENTS IS    9

 NUMBER OF STREAM PARAMETERS IS    0

 NUMBER OF STREAM SEGMENTS DEFINED USING PARAMETERS IS              0

 MAXIMUM ERROR FOR STREAM LEAKAGE RATES IS  1.00E-06

 CONSTANT FOR MANNINGS EQUATION IS  1.4860E+00



 STREAM OUTPUT WILL BE WRITTEN TO FILE ON UNIT   81


   STREAM NETWORK DESCRIPTION: 

   LAYER    ROW    COL   SEGMENT   REACH     LENGTH
                          NUMBER   NUMBER    IN CELL        
   --------------------------------------------------
      1      1      1       1        1    4.5000E+03
      1      2      2       1        2    7.0000E+03
      1      3      3       1        3    6.0000E+03
      1      3      4       1        4    5.5500E+03
      1      4      5       2        1    6.5000E+03
      1      5      6       2        2    5.0000E+03
      1      6      6       2        3    5.0000E+03
      1      7      6       2        4    5.0000E+03
      1      8      6       2        5    5.0000E+03
      1      3      5       3        1    5.0000E+03
      1      3      6       3        2    5.0000E+03
      1      3      7       3        3    4.5000E+03
      1      4      8       3        4    6.0000E+03
      1      5      8       3        5    5.0000E+03
      1      6      8       3        6    2.0000E+03
      1      5     10       4        1    2.5000E+03
      1      5      9       4        2    5.0000E+03
      1      6      8       4        3    3.5000E+03
      1      6      8       5        1    4.0000E+03
      1      7      7       5        2    5.0000E+03
      1      8      7       5        3    3.5000E+03
      1      8      6       5        4    2.5000E+03
      1      9      6       6        1    5.0000E+03
      1     10      7       6        2    5.0000E+03
      1     11      7       6        3    5.0000E+03
      1     12      7       6        4    5.0000E+03
      1     13      7       6        5    2.0000E+03
      1     14      9       7        1    5.0000E+03
      1     13      8       7        2    5.5000E+03
      1     13      7       7        3    5.0000E+03
      1     13      6       8        1    5.0000E+03
      1     13      5       8        2    5.0000E+03
      1     13      4       8        3    5.0000E+03
      1     13      3       8        4    5.0000E+03
      1     13      2       8        5    5.0000E+03
      1     13      1       8        6    3.0000E+03
      1      6      8       9        1    5.0000E+01




 UZF1 -- UNSATURATED FLOW PACKAGE, VERSION 1.4, 02/06/2012
         INPUT READ FROM UNIT 19
 #UZF Package input for test simulation 2
 No named parameters

 PROCESSING UZF OPTIONS
 
 INITIAL WATER CONTENT (THTI) WILL BE 
READ FOR THE FIRST SS OR TR STRESS PERIOD
 
 
 RESIDUAL WATER CONTENT (THTR) WILL BE 
READ AND USED FOR THE FIRST TRANSIENT STRESS 
PERIOD
 
  OUTPUT WILL BE WRITTEN TO NETRECH AND NETDIS FILES WITH UNIT NUMBERS        100       101, RESPECTIVELY
 
 A SQUARE ET FUNCTION WILL BE USED TO SIMULATE GW ET
 
           1
INFILTRATION WILL BE REJECTED USING 
LAND SURFACE K
 
 
HYDRAULIC CONDUCTIVITY OF LAND SURFACE 
WILL BE READ
 
 
AGRICULTURAL DEMANDS WILL BE 
CALCULATED USING ET DEFICIT
 

 END PROCESSING UZF OPTIONS



            AREAL EXTENT OF UZ FLOW
 READING ON UNIT   19 WITH FORMAT: (20I4)              

                1           2           3           4           5           6           7           8           9          10
 ............................................................................................................................
   1            1           1           0           0           0           0           0           0           0           0
   2            1           1           1           0           0           1           1           1           0           0
   3            0           1           1           1           1           1           1           1           0           0
   4            1           1           1           1           1           1           1           1           1           0
   5            1           1           1           1           1           1           1           1           1           1
   6            1           1           1           1           1           1           1           1           1           1
   7            1           1           1           1           1           1           1           1           1           0
   8            0           1           1           1           1           1           1           1           1           0
   9            0           1           1           1           1           1           1           1           1           0
  10            0           1           1           1           1           1           1           1           1           1
  11            0           1           1           1           1           1           1           1           1           0
  12            1           1           1           1           1           1           1           1           1           0
  13            1           1           1           1           1           1           1           1           1           0
  14            0           1           1           1           1           1           1           1           1           0
  15            0           0           1           1           1           1           0           0           0           0
 OPTION 1 -- RECHARGE IN UZF TO TOP LAYER ONLY 



            ROUTING OVERLAND RUNOFF
 READING ON UNIT   19 WITH FORMAT: (20I4)              

                1           2           3           4           5           6           7           8           9          10
 ............................................................................................................................
   1            1           1           0           0           0           0           0           0           0           0
   2            1           1           1           0           0           3           3           3           0           0
   3            0           1           1           1           3           3           3           3           0           0
   4            8           8           2           2           2           2           2           3           3           0
   5            8           8           8           8           2           2           2           3           4           4
   6            8           8           8           8           8           2           2           4           4           4
   7            8           8           8           8           8           2           5           5           5           0
   8            0           8           8           8           8           2           5           5           5           0
   9            0           8           8           8           8           6           6           6           6           0
  10            0           8           8           8           8           6           6           6           6           6
  11            0           8           8           8           8           8           6           6           7           0
  12            8           8           8           8           8           8           6           7           7           0
  13            8           8           8           8           8           8           7           7           7           0
  14            0           8           8           8           8           8           7           7           7           0
  15            0           0           8           8           8           8           0           0           0           0



               SATURATED VERTICAL K
 READING ON UNIT   19 WITH FORMAT: (10F4.0)            

            1           2           3           4           5           6           7           8           9          10
 ........................................................................................................................
   1   5.0000E-06  5.0000E-06   0.000       0.000       0.000       0.000       0.000       0.000       0.000       0.000    
   2   5.0000E-06  5.0000E-06  5.0000E-06   0.000       0.000      5.0000E-06  5.0000E-06  5.0000E-06   0.000       0.000    
   3    0.000      5.0000E-06  5.0000E-06  5.0000E-06  5.0000E-06  5.0000E-06  5.0000E-06  5.0000E-06   0.000       0.000    
   4   5.0000E-06  5.0000E-06  5.0000E-06  5.0000E-06  5.0000E-06  5.0000E-06  5.0000E-06  5.0000E-06  5.0000E-06   0.000    
   5   5.0000E-06  5.0000E-06  5.0000E-06  5.0000E-06  5.0000E-06  5.0000E-06  5.0000E-06  5.0000E-06  5.0000E-06  5.0000E-06
   6   5.0000E-06  5.0000E-06  5.0000E-06  5.0000E-06  5.0000E-06  5.0000E-06  5.0000E-06  5.0000E-06  5.0000E-06  5.0000E-06
   7   5.0000E-06  5.0000E-06  5.0000E-06  5.0000E-06  5.0000E-06  5.0000E-06  5.0000E-06  5.0000E-06  5.0000E-06   0.000    
   8    0.000      5.0000E-06  5.0000E-06  5.0000E-06  5.0000E-06  5.0000E-06  5.0000E-06  5.0000E-06  5.0000E-06   0.000    
   9    0.000      5.0000E-06  5.0000E-06  5.0000E-06  5.0000E-06  5.0000E-06  5.0000E-06  5.0000E-06  5.0000E-06   0.000    
  10    0.000      5.0000E-06  5.0000E-06  5.0000E-06  5.0000E-06  5.0000E-06  5.0000E-06  5.0000E-06  5.0000E-06  5.0000E-06
  11    0.000      5.0000E-06  5.0000E-06  5.0000E-06  5.0000E-06  5.0000E-06  5.0000E-06  5.0000E-06  5.0000E-06   0.000    
  12   5.0000E-06  5.0000E-06  5.0000E-06  5.0000E-06  5.0000E-06  5.0000E-06  5.0000E-06  5.0000E-06  5.0000E-06   0.000    
  13   5.0000E-06  5.0000E-06  5.0000E-06  5.0000E-06  5.0000E-06  5.0000E-06  5.0000E-06  5.0000E-06  5.0000E-06   0.000    
  14    0.000      5.0000E-06  5.0000E-06  5.0000E-06  5.0000E-06  5.0000E-06  5.0000E-06  5.0000E-06  5.0000E-06   0.000    
  15    0.000       0.000      5.0000E-06  5.0000E-06  5.0000E-06  5.0000E-06   0.000       0.000       0.000       0.000    



            LAND SURFACE VERTICAL K
 READING ON UNIT   19 WITH FORMAT: (10F4.0)            

            1           2           3           4           5           6           7           8           9          10
 ........................................................................................................................
   1   5.0000E-06  5.0000E-06   0.000       0.000       0.000       0.000       0.000       0.000       0.000       0.000    
   2   5.0000E-06  5.0000E-06  5.0000E-06   0.000       0.000      5.0000E-06  5.0000E-06  5.0000E-06   0.000       0.000    
   3    0.000      5.0000E-06  5.0000E-06  5.0000E-06  5.0000E-06  5.0000E-06  5.0000E-06  5.0000E-06   0.000       0.000    
   4   5.0000E-06  5.0000E-06  5.0000E-06  5.0000E-06  5.0000E-06  5.0000E-06  5.0000E-06  5.0000E-06  5.0000E-06   0.000    
   5   5.0000E-06  5.0000E-06  5.0000E-06  5.0000E-06  5.0000E-06  5.0000E-06  5.0000E-06  5.0000E-06  5.0000E-06  5.0000E-06
   6   5.0000E-06  5.0000E-06  5.0000E-06  5.0000E-06  5.0000E-06  5.0000E-06  5.0000E-06  5.0000E-06  5.0000E-06  5.0000E-06
   7   5.0000E-06  5.0000E-06  5.0000E-06  5.0000E-06  5.0000E-06  5.0000E-06  5.0000E-06  5.0000E-06  5.0000E-06   0.000    
   8    0.000      5.0000E-06  5.0000E-06  5.0000E-06  5.0000E-06  5.0000E-06  5.0000E-06  5.0000E-06  5.0000E-06   0.000    
   9    0.000      5.0000E-06  5.0000E-06  5.0000E-06  5.0000E-06  5.0000E-06  5.0000E-06  5.0000E-06  5.0000E-06   0.000    
  10    0.000      5.0000E-06  5.0000E-06  5.0000E-06  5.0000E-06  5.0000E-06  5.0000E-06  5.0000E-06  5.0000E-06  5.0000E-06
  11    0.000      5.0000E-06  5.0000E-06  5.0000E-06  5.0000E-06  5.0000E-06  5.0000E-06  5.0000E-06  5.0000E-06   0.000    
  12   5.0000E-06  5.0000E-06  5.0000E-06  5.0000E-06  5.0000E-06  5.0000E-06  5.0000E-06  5.0000E-06  5.0000E-06   0.000    
  13   5.0000E-06  5.0000E-06  5.0000E-06  5.0000E-06  5.0000E-06  5.0000E-06  5.0000E-06  5.0000E-06  5.0000E-06   0.000    
  14    0.000      5.0000E-06  5.0000E-06  5.0000E-06  5.0000E-06  5.0000E-06  5.0000E-06  5.0000E-06  5.0000E-06   0.000    
  15    0.000       0.000      5.0000E-06  5.0000E-06  5.0000E-06  5.0000E-06   0.000       0.000       0.000       0.000    

     BROOKS-COREY EPSILON =   5.50000    

  SATURATED WATER CONTENT =  0.220000    

   RESIDUAL WATER CONTENT =  5.000000E-02

    INITIAL WATER CONTENT =  0.100000    

UNSATURATED FLOW RESULTS WILL BE PRINTED TO SEPARATE FILES FOR SELECTED MODEL CELLS, AND TIME STEPS AS DEFINED BY OUTPUT CONTROL PACKAGE 

SELECTED MODEL CELLS ARE: 
 ROW NUMBER  COLUMN NUMBER  FORTRAN UNIT NUMBER  OUTPUT OPTION


       3             6                 65                 1
       6             8                 66                 2
       6             7                 67                 3
       0             0                 68                 4



   9 GAGING STATIONS WERE SPECIFIED.
     (Lakes are identified by a negative value of the Lake Number)
     RECORDS WILL BE WRITTEN TO SEPARATE OUTPUT FILES REPRESENTED BY FOLLOWING UNIT NUMBERS:

 Stream Gages:
  GAGE #   SEGMENT   REACH   UNIT   OUTTYPE
       1       1       4      83       1
       2       2       3      84       1
       3       3       5      85       1
       4       4       3      86       1
       5       5       4      87       4
       6       6       5      88       4
       7       7       3      89       4
       8       8       6      90       4
       9       9       1      91       5




1
                            STRESS PERIOD NO.    1, LENGTH =   2628000.    
                            -----------------------------------------------

                              NUMBER OF TIME STEPS =     1

                               MULTIPLIER FOR DELT =     1.000

                            INITIAL TIME STEP SIZE =   2628000.    

 WELL NO.  LAYER   ROW   COL   STRESS RATE         
 --------------------------------------------------
      1      1      6      4       0.000    
      2      1      6      7       0.000    
      3      1      7      4       0.000    
      4      1      7      5       0.000    
      5      1      8      4       0.000    
      6      1      8      5       0.000    
      7      1      9      4       0.000    
      8      1      9      5       0.000    
      9      1     10      4       0.000    
     10      1     10      5       0.000    
 #WELL NUMBER, numsegs, supfact, SEGMENT NUMBER
 #
 # WELL#,NUMCELLS,EFF_FACT1,percent1, ROW1,COL1,EFF_FACT1,percent1, ROW2,COL2,ETC.

     10 WELLS

 BOUND. NO. LAYER   ROW   COL     STAGE      CONDUCTANCE         
 ----------------------------------------------------------------
      1      1     13      1       988.0          0.3800E-01
      2      1     14      9       1045.          0.3800E-01

      2 GHB CELLS



 CLASSIFICATION & COUNT OF STREAM SEGMENTS BASED ON SOURCE OF INFLOW:

                HEADWATER     DIVERSION     RECEIVES TRIBUTARY FLOW
                ---------     ---------     -----------------------
                     3              2               4



                    INPUT DATA FOR EACH STREAM SEGMENT
 ---------------------------------------------------------------------------------------------

 SEGMENT    SEG.     INFLOW   OVERLAND   STREAM    STREAM   ICALC  OUTFLOW  DIVERSION PRIORITY
    NO.    LENGTH     RATE     RUNOFF      ET       PPT.    METH.  TO SEG.  FROM SEG.    NO.

      1  2.305E+04 2.500E+01 0.000E+00 0.000E+00 0.000E+00    4        2        0        0
      2  2.650E+04 0.000E+00 0.000E+00 0.000E+00 0.000E+00    1        6        0        0
      3  2.750E+04 2.000E+00 0.000E+00 0.000E+00 0.000E+00    0        5        1        0
      4  1.100E+04 1.000E+01 0.000E+00 0.000E+00 0.000E+00    1        5        0        0
      5  1.500E+04 0.000E+00 0.000E+00 0.000E+00 0.000E+00    3        6        0        0
      6  2.200E+04 0.000E+00 0.000E+00 0.000E+00 0.000E+00    1        8        0        0
      7  1.550E+04 1.500E+02 0.000E+00 0.000E+00 0.000E+00    2        8        0        0
      8  2.800E+04 0.000E+00 0.000E+00 0.000E+00 0.000E+00    2        0        0        0
      9  5.000E+01 0.000E+00 0.000E+00 0.000E+00 0.000E+00    1        0        2        0


         STREAMBED PROPERTIES AND STREAM DIMENSIONS

 SEGMENT     BED HYD. COND.      BED THICKNESS     ELEV.-TOP OF BED     WIDTH OF STREAM     DEPTH OF STREAM    STREAM ROUGHNESS
    No.     UPPER     LOWER     UPPER     LOWER     UPPER     LOWER     UPPER     LOWER     UPPER     LOWER   CHANNEL      BANK

     1  3.000E-05 3.000E-05 3.000E+00 3.000E+00 1.095E+03 1.075E+03
     2  3.000E-05 3.000E-05 3.000E+00 3.000E+00 1.075E+03 1.050E+03 1.200E+01 1.200E+01                     3.000E-02
     3  3.000E-05 3.000E-05 2.000E+00 2.000E+00 1.075E+03 1.060E+03 1.000E+01 6.000E+00 2.000E+00 1.000E+00
     4  3.000E-05 3.000E-05 3.000E+00 3.000E+00 1.080E+03 1.060E+03 1.000E+01 1.000E+01                     3.000E-02
     5  3.000E-05 3.000E-05 3.000E+00 3.000E+00 1.060E+03 1.045E+03
     6  3.000E-05 3.000E-05 3.000E+00 3.000E+00 1.045E+03 1.025E+03 1.200E+01 1.200E+01                     3.000E-02
     7  6.000E-05 6.000E-05 3.000E+00 3.000E+00 1.040E+03 1.025E+03                                         2.500E-02 4.500E-02
     8  6.000E-05 6.000E-05 3.000E+00 3.000E+00 1.025E+03 9.900E+02                                         2.500E-02 4.500E-02
     9  0.000E+00 0.000E+00 3.000E+00 3.000E+00 1.079E+03 1.078E+03 4.000E+00 4.000E+00                     3.000E-02

  EIGHT POINT CROSS-SECTION DATA FOR SEGMENTS WITH ICALC = 2
    X VALUES X VALUES START FROM LEFT SIDE LOOKING DOWNSTREAM

     SEGMENT NO.        X1        X2        X3        X4        X5        X6        X7        X8
            7      0.000E+00 1.000E+01 8.000E+01 1.000E+02 1.500E+02 1.700E+02 2.400E+02 2.500E+02
            8      0.000E+00 1.000E+01 8.000E+01 1.000E+02 1.500E+02 1.700E+02 2.400E+02 2.500E+02

    Z VALUES ARE RELATIVE TO STREAMBED ELEVATION

     SEGMENT NO.          Z1        Z2        Z3        Z4        Z5        Z6        Z7        Z8
            7      2.000E+01 1.300E+01 1.000E+01 2.000E+00 0.000E+00 1.000E+01 1.300E+01 2.000E+01
            8      2.500E+01 1.700E+01 1.300E+01 4.000E+00 0.000E+00 1.000E+01 1.600E+01 2.000E+01

 STREAMFLOW RELATION WITH DEPTH IS BASED ON EQUATION Q = CDPTH*(DEPTH)**FDPTH
 STREAMFLOW RELATION WITH WIDTH IS BASED ON EQUATION Q = AWDTH*(WIDTH)**BWDTH

 SEGMENT NO.      CDPTH     FDPTH    AWDTH     BWDTH

          5 3.000E-01 3.500E-01 3.800E+00 6.000E-01

 STREAMFLOW RELATION WITH DEPTH AND WIDTH IS BASED ON TABULATED VALUES

  SEGMENT NO.   STREAMFLOW       DEPTH       WIDTH

          1     5.0000E-01   2.5000E-01   3.0000E+00
          1     1.0000E+00   4.0000E-01   3.5000E+00
          1     2.0000E+00   5.5000E-01   4.2000E+00
          1     4.0000E+00   7.0000E-01   5.3000E+00
          1     7.0000E+00   8.0000E-01   7.0000E+00
          1     1.0000E+01   9.0000E-01   8.5000E+00
          1     2.0000E+01   1.1000E+00   1.2000E+01
          1     3.0000E+01   1.2500E+00   1.4000E+01
          1     5.0000E+01   1.4000E+00   1.7000E+01
          1     7.5000E+01   1.7000E+00   2.0000E+01
          1     1.0000E+02   1.8000E+00   2.2000E+01



TABULAR INFLOWS WERE READ FOR SEGMENT      1
FROM FILE UNIT NUMBER     55

          TIMES                    INFLOWS
             0.0000000000         0.0000000000
       2630000.0000000000        22.0000000000
       5260000.0000000000        42.0000000000
       7880000.0000000000        77.0000000000
      10500000.0000000000        28.0000000000
      13100000.0000000000        99.0000000000
      15800000.0000000000        63.0000000000
      18400000.0000000000        35.0000000000
      21000000.0000000000        21.0000000000
      23700000.0000000000         7.0000000000
      26300000.0000000000         3.5000000000
      28900000.0000000000         3.2999999523
      31500000.0000000000         3.0999999046
      34200000.0000000000        10.5000000000
      36800000.0000000000        21.0000000000
      39400000.0000000000        98.0000000000
      42000000.0000000000        35.0000000000
      44700000.0000000000        63.0000000000
      47300000.0000000000        28.0000000000
      49900000.0000000000        14.0000000000
      52600000.0000000000         7.0000000000
      55200000.0000000000         3.5000000000
      57800000.0000000000         3.2000000477
      60400000.0000000000         3.5000000000
      63100000.0000000000         3.5000000000
      65700000.0000000000        14.0000000000
TABULAR INFLOWS WERE READ FOR SEGMENT      9
FROM FILE UNIT NUMBER     56

          TIMES                    INFLOWS
             0.0000000000         0.0000000000
         86400.0000000000         0.0000000000
        173000.0000000000         0.0000000000
        259000.0000000000         0.0000000000
        346000.0000000000         0.0000000000
        432000.0000000000         0.0000000000
        518000.0000000000         0.0000000000
        605000.0000000000         0.0000000000
        691000.0000000000         0.0000000000
        778000.0000000000         0.0000000000
        864000.0000000000         0.0000000000
        950000.0000000000         0.0000000000
       1040000.0000000000         0.0000000000
       1120000.0000000000         0.0000000000
       1210000.0000000000         0.0000000000
       1300000.0000000000         0.0000000000
       1380000.0000000000         0.0000000000
       1470000.0000000000         0.0000000000
       1560000.0000000000         0.0000000000
       1640000.0000000000         0.0000000000
       1730000.0000000000         0.0000000000
       1810000.0000000000         0.0000000000
       1900000.0000000000         0.0000000000
       1990000.0000000000         0.0000000000
       2070000.0000000000         0.0000000000
       2160000.0000000000         0.0000000000
       2250000.0000000000         0.0000000000
       2330000.0000000000         0.0000000000
       2420000.0000000000         0.0000000000
       2510000.0000000000         0.0000000000
       2590000.0000000000         0.0000000000
       2680000.0000000000         0.0000000000
       2760000.0000000000         0.0000000000
       2850000.0000000000         0.0000000000
       2940000.0000000000         0.0000000000
       3020000.0000000000         0.0000000000
       3110000.0000000000         0.0000000000
       3200000.0000000000         0.0000000000
       3280000.0000000000         0.0000000000
       3370000.0000000000         0.0000000000
       3460000.0000000000         0.0000000000
       3540000.0000000000         0.0000000000
       3630000.0000000000         0.0000000000
       3720000.0000000000         0.0000000000
       3800000.0000000000         0.0000000000
       3890000.0000000000         0.0000000000
       3970000.0000000000         0.0000000000
       4060000.0000000000         0.0000000000
       4150000.0000000000         0.0000000000
       4230000.0000000000         0.0000000000
       4320000.0000000000         0.0000000000
       4410000.0000000000         0.0000000000
       4490000.0000000000         0.0000000000
       4580000.0000000000         0.0000000000
       4670000.0000000000         0.0000000000
       4750000.0000000000         0.0000000000
       4840000.0000000000         0.0000000000
       4920000.0000000000         0.0000000000
       5010000.0000000000         0.0000000000
       5100000.0000000000         0.0000000000
       5180000.0000000000         0.0000000000
       5270000.0000000000         0.0000000000
       5360000.0000000000         0.0000000000
       5440000.0000000000         0.0000000000
       5530000.0000000000         0.0000000000
       5620000.0000000000         0.0000000000
       5700000.0000000000         0.0000000000
       5790000.0000000000         0.0000000000
       5880000.0000000000         0.0000000000
       5960000.0000000000         0.0000000000
       6050000.0000000000         0.0000000000
       6130000.0000000000         0.0000000000
       6220000.0000000000         0.0000000000
       6310000.0000000000         0.0000000000
       6390000.0000000000         0.0000000000
       6480000.0000000000         0.0000000000
       6570000.0000000000         0.0000000000
       6650000.0000000000         0.0000000000
       6740000.0000000000         0.0000000000
       6830000.0000000000         0.0000000000
       6910000.0000000000         0.0000000000
       7000000.0000000000         0.0000000000
       7080000.0000000000         0.0000000000
       7170000.0000000000         0.0000000000
       7260000.0000000000         0.0000000000
       7340000.0000000000         0.0000000000
       7430000.0000000000         0.0000000000
       7520000.0000000000         0.0000000000
       7600000.0000000000         0.0000000000
       7690000.0000000000         0.0000000000
       7780000.0000000000         0.0000000000
       7860000.0000000000         0.0000000000
       7950000.0000000000         0.0000000000
       8040000.0000000000         0.0000000000
       8120000.0000000000         0.0000000000
       8210000.0000000000         0.0000000000
       8290000.0000000000         0.0000000000
       8380000.0000000000         0.0000000000
       8470000.0000000000         0.0000000000
       8550000.0000000000         0.0000000000
       8640000.0000000000         0.0000000000
       8730000.0000000000         0.0000000000
       8810000.0000000000         0.0000000000
       8900000.0000000000         0.0000000000
       8990000.0000000000         0.0000000000
       9070000.0000000000         0.0000000000
       9160000.0000000000         0.0000000000
       9240000.0000000000         0.0000000000
       9330000.0000000000         0.0000000000
       9420000.0000000000         0.0000000000
       9500000.0000000000         0.0000000000
       9590000.0000000000         0.0000000000
       9680000.0000000000         0.0000000000
       9760000.0000000000         0.0000000000
       9850000.0000000000         0.0000000000
       9940000.0000000000         0.0000000000
      10000000.0000000000         0.0000000000
      10100000.0000000000         0.0000000000
      10200000.0000000000         0.0000000000
      10300000.0000000000         0.0000000000
      10400000.0000000000         0.0000000000
      10500000.0000000000         0.0000000000
      10500000.0000000000         0.0000000000
      10600000.0000000000         0.0000000000
      10700000.0000000000         0.0000000000
      10800000.0000000000         0.0000000000
      10900000.0000000000         0.0000000000
      11000000.0000000000         0.0000000000
      11100000.0000000000         0.0000000000
      11100000.0000000000         0.0000000000
      11200000.0000000000         0.0000000000
      11300000.0000000000         0.0000000000
      11400000.0000000000         0.0000000000
      11500000.0000000000         0.0000000000
      11600000.0000000000         0.0000000000
      11700000.0000000000         0.0000000000
      11800000.0000000000         0.0000000000
      11800000.0000000000         0.0000000000
      11900000.0000000000         0.0000000000
      12000000.0000000000         0.0000000000
      12100000.0000000000         0.0000000000
      12200000.0000000000         0.0000000000
      12300000.0000000000         0.0000000000
      12400000.0000000000         0.0000000000
      12400000.0000000000         0.0000000000
      12500000.0000000000         0.0000000000
      12600000.0000000000         0.0000000000
      12700000.0000000000         0.0000000000
      12800000.0000000000         0.0000000000
      12900000.0000000000         0.0000000000
      13000000.0000000000         0.0000000000
      13000000.0000000000        20.0000000000
      13100000.0000000000        20.0000000000
      13200000.0000000000        20.0000000000
      13300000.0000000000        20.0000000000
      13400000.0000000000        20.0000000000
      13500000.0000000000        20.0000000000
      13600000.0000000000        20.0000000000
      13700000.0000000000        20.0000000000
      13700000.0000000000        20.0000000000
      13800000.0000000000        20.0000000000
      13900000.0000000000        20.0000000000
      14000000.0000000000        20.0000000000
      14100000.0000000000        20.0000000000
      14200000.0000000000        20.0000000000
      14300000.0000000000        20.0000000000
      14300000.0000000000        20.0000000000
      14400000.0000000000        20.0000000000
      14500000.0000000000        20.0000000000
      14600000.0000000000        20.0000000000
      14700000.0000000000        20.0000000000
      14800000.0000000000        20.0000000000
      14900000.0000000000        20.0000000000
      14900000.0000000000        20.0000000000
      15000000.0000000000        20.0000000000
      15100000.0000000000        20.0000000000
      15200000.0000000000        20.0000000000
      15300000.0000000000        20.0000000000
      15400000.0000000000        20.0000000000
      15500000.0000000000        20.0000000000
      15600000.0000000000        20.0000000000
      15600000.0000000000        20.0000000000
      15700000.0000000000        20.0000000000
      15800000.0000000000        20.0000000000
      15900000.0000000000        20.0000000000
      16000000.0000000000        20.0000000000
      16100000.0000000000        20.0000000000
      16200000.0000000000        20.0000000000
      16200000.0000000000        20.0000000000
      16300000.0000000000        20.0000000000
      16400000.0000000000        20.0000000000
      16500000.0000000000        20.0000000000
      16600000.0000000000        20.0000000000
      16700000.0000000000        20.0000000000
      16800000.0000000000        20.0000000000
      16800000.0000000000        20.0000000000
      16900000.0000000000        20.0000000000
      17000000.0000000000        20.0000000000
      17100000.0000000000        20.0000000000
      17200000.0000000000        20.0000000000
      17300000.0000000000        20.0000000000
      17400000.0000000000        20.0000000000
      17500000.0000000000        20.0000000000
      17500000.0000000000        20.0000000000
      17600000.0000000000        20.0000000000
      17700000.0000000000        20.0000000000
      17800000.0000000000        20.0000000000
      17900000.0000000000        20.0000000000
      18000000.0000000000        20.0000000000
      18100000.0000000000        20.0000000000
      18100000.0000000000        20.0000000000
      18200000.0000000000        20.0000000000
      18300000.0000000000        20.0000000000
      18400000.0000000000        20.0000000000
      18500000.0000000000        20.0000000000
      18600000.0000000000        20.0000000000
      18700000.0000000000        20.0000000000
      18700000.0000000000        20.0000000000
      18800000.0000000000        20.0000000000
      18900000.0000000000        20.0000000000
      19000000.0000000000        20.0000000000
      19100000.0000000000        20.0000000000
      19200000.0000000000        20.0000000000
      19300000.0000000000        20.0000000000
      19400000.0000000000        20.0000000000
      19400000.0000000000        20.0000000000
      19500000.0000000000        20.0000000000
      19600000.0000000000        20.0000000000
      19700000.0000000000        20.0000000000
      19800000.0000000000        20.0000000000
      19900000.0000000000        20.0000000000
      20000000.0000000000        20.0000000000
      20000000.0000000000        20.0000000000
      20100000.0000000000        20.0000000000
      20200000.0000000000        20.0000000000
      20300000.0000000000        20.0000000000
      20400000.0000000000        20.0000000000
      20500000.0000000000        20.0000000000
      20600000.0000000000        20.0000000000
      20600000.0000000000        20.0000000000
      20700000.0000000000        20.0000000000
      20800000.0000000000        20.0000000000
      20900000.0000000000        20.0000000000
      21000000.0000000000        20.0000000000
      21100000.0000000000        20.0000000000
      21200000.0000000000        20.0000000000
      21300000.0000000000        20.0000000000
      21300000.0000000000        20.0000000000
      21400000.0000000000        20.0000000000
      21500000.0000000000        20.0000000000
      21600000.0000000000        20.0000000000
      21700000.0000000000        20.0000000000
      21800000.0000000000        20.0000000000
      21900000.0000000000        20.0000000000
      21900000.0000000000        20.0000000000
      22000000.0000000000        20.0000000000
      22100000.0000000000        20.0000000000
      22200000.0000000000        20.0000000000
      22300000.0000000000        20.0000000000
      22400000.0000000000        20.0000000000
      22500000.0000000000        20.0000000000
      22600000.0000000000        20.0000000000
      22600000.0000000000        20.0000000000
      22700000.0000000000        20.0000000000
      22800000.0000000000        20.0000000000
      22900000.0000000000        20.0000000000
      23000000.0000000000        20.0000000000
      23100000.0000000000        20.0000000000
      23200000.0000000000        20.0000000000
      23200000.0000000000        20.0000000000
      23300000.0000000000        20.0000000000
      23400000.0000000000        20.0000000000
      23500000.0000000000        20.0000000000
      23600000.0000000000        20.0000000000
      23700000.0000000000        20.0000000000
      23800000.0000000000        20.0000000000
      23800000.0000000000        20.0000000000
      23900000.0000000000        20.0000000000
      24000000.0000000000        20.0000000000
      24100000.0000000000        20.0000000000
      24200000.0000000000        20.0000000000
      24300000.0000000000        20.0000000000
      24400000.0000000000        20.0000000000
      24500000.0000000000        20.0000000000
      24500000.0000000000        20.0000000000
      24600000.0000000000        20.0000000000
      24700000.0000000000        20.0000000000
      24800000.0000000000         0.0000000000
      24900000.0000000000         0.0000000000
      25000000.0000000000         0.0000000000
      25100000.0000000000         0.0000000000
      25100000.0000000000         0.0000000000
      25200000.0000000000         0.0000000000
      25300000.0000000000         0.0000000000
      25400000.0000000000         0.0000000000
      25500000.0000000000         0.0000000000
      25600000.0000000000         0.0000000000
      25700000.0000000000         0.0000000000
      25700000.0000000000         0.0000000000
      25800000.0000000000         0.0000000000
      25900000.0000000000         0.0000000000
      26000000.0000000000         0.0000000000
      26100000.0000000000         0.0000000000
      26200000.0000000000         0.0000000000
      26300000.0000000000         0.0000000000
      26400000.0000000000         0.0000000000
      26400000.0000000000         0.0000000000
      26500000.0000000000         0.0000000000
      26600000.0000000000         0.0000000000
      26700000.0000000000         0.0000000000
      26800000.0000000000         0.0000000000
      26900000.0000000000         0.0000000000
      27000000.0000000000         0.0000000000
      27000000.0000000000         0.0000000000
      27100000.0000000000         0.0000000000
      27200000.0000000000         0.0000000000
      27300000.0000000000         0.0000000000
      27400000.0000000000         0.0000000000
      27500000.0000000000         0.0000000000
      27600000.0000000000         0.0000000000
      27600000.0000000000         0.0000000000
      27700000.0000000000         0.0000000000
      27800000.0000000000         0.0000000000
      27900000.0000000000         0.0000000000
      28000000.0000000000         0.0000000000
      28100000.0000000000         0.0000000000
      28200000.0000000000         0.0000000000
      28300000.0000000000         0.0000000000
      28300000.0000000000         0.0000000000
      28400000.0000000000         0.0000000000
      28500000.0000000000         0.0000000000
      28600000.0000000000         0.0000000000
      28700000.0000000000         0.0000000000
      28800000.0000000000         0.0000000000
      28900000.0000000000         0.0000000000
      28900000.0000000000         0.0000000000
      29000000.0000000000         0.0000000000
      29100000.0000000000         0.0000000000
      29200000.0000000000         0.0000000000
      29300000.0000000000         0.0000000000
      29400000.0000000000         0.0000000000
      29500000.0000000000         0.0000000000
      29500000.0000000000         0.0000000000
      29600000.0000000000         0.0000000000
      29700000.0000000000         0.0000000000
      29800000.0000000000         0.0000000000
      29900000.0000000000         0.0000000000
      30000000.0000000000         0.0000000000
      30100000.0000000000         0.0000000000
      30200000.0000000000         0.0000000000
      30200000.0000000000         0.0000000000
      30300000.0000000000         0.0000000000
      30400000.0000000000         0.0000000000
      30500000.0000000000         0.0000000000
      30600000.0000000000         0.0000000000
      30700000.0000000000         0.0000000000
      30800000.0000000000         0.0000000000
      30800000.0000000000         0.0000000000
      30900000.0000000000         0.0000000000
      31000000.0000000000         0.0000000000
      31100000.0000000000         0.0000000000
      31200000.0000000000         0.0000000000
      31300000.0000000000         0.0000000000
      31400000.0000000000         0.0000000000
      31400000.0000000000         0.0000000000
      31500000.0000000000         0.0000000000
      31600000.0000000000         0.0000000000
      31700000.0000000000         0.0000000000
      31800000.0000000000         0.0000000000
      31900000.0000000000         0.0000000000
      32000000.0000000000         0.0000000000
      32100000.0000000000         0.0000000000
      32100000.0000000000         0.0000000000
      32200000.0000000000         0.0000000000
      32300000.0000000000         0.0000000000
      32400000.0000000000         0.0000000000
      32500000.0000000000         0.0000000000
      32600000.0000000000         0.0000000000
      32700000.0000000000         0.0000000000
      32700000.0000000000         0.0000000000
      32800000.0000000000         0.0000000000
      32900000.0000000000         0.0000000000
      33000000.0000000000         0.0000000000
      33100000.0000000000         0.0000000000
      33200000.0000000000         0.0000000000
      33300000.0000000000         0.0000000000
      33400000.0000000000         0.0000000000
      33400000.0000000000         0.0000000000
      33500000.0000000000         0.0000000000
      33600000.0000000000         0.0000000000
      33700000.0000000000         0.0000000000
      33800000.0000000000         0.0000000000
      33900000.0000000000         0.0000000000
      34000000.0000000000         0.0000000000
      34000000.0000000000         0.0000000000
      34100000.0000000000         0.0000000000
      34200000.0000000000         0.0000000000
      34300000.0000000000         0.0000000000
      34400000.0000000000         0.0000000000
      34500000.0000000000         0.0000000000
      34600000.0000000000         0.0000000000
      34600000.0000000000         0.0000000000
      34700000.0000000000         0.0000000000
      34800000.0000000000         0.0000000000
      34900000.0000000000         0.0000000000
      35000000.0000000000         0.0000000000
      35100000.0000000000         0.0000000000
      35200000.0000000000         0.0000000000
      35300000.0000000000         0.0000000000
      35300000.0000000000         0.0000000000
      35400000.0000000000         0.0000000000
      35500000.0000000000         0.0000000000
      35600000.0000000000         0.0000000000
      35700000.0000000000         0.0000000000
      35800000.0000000000         0.0000000000
      35900000.0000000000         0.0000000000
      35900000.0000000000         0.0000000000
      36000000.0000000000         0.0000000000
      36100000.0000000000         0.0000000000
      36200000.0000000000         0.0000000000
      36300000.0000000000         0.0000000000
      36400000.0000000000         0.0000000000
      36500000.0000000000         0.0000000000
      36500000.0000000000         0.0000000000
      36600000.0000000000         0.0000000000
      36700000.0000000000         0.0000000000
      36800000.0000000000         0.0000000000
      36900000.0000000000         0.0000000000
      37000000.0000000000         0.0000000000
      37100000.0000000000         0.0000000000
      37200000.0000000000         0.0000000000
      37200000.0000000000         0.0000000000
      37300000.0000000000         0.0000000000
      37400000.0000000000         0.0000000000
      37500000.0000000000         0.0000000000
      37600000.0000000000         0.0000000000
      37700000.0000000000         0.0000000000
      37800000.0000000000         0.0000000000
      37800000.0000000000         0.0000000000
      37900000.0000000000         0.0000000000
      38000000.0000000000         0.0000000000
      38100000.0000000000         0.0000000000
      38200000.0000000000         0.0000000000
      38300000.0000000000         0.0000000000
      38400000.0000000000         0.0000000000
      38400000.0000000000         0.0000000000
      38500000.0000000000         0.0000000000
      38600000.0000000000         0.0000000000
      38700000.0000000000         0.0000000000
      38800000.0000000000         0.0000000000
      38900000.0000000000         0.0000000000
      39000000.0000000000         0.0000000000
      39100000.0000000000         0.0000000000
      39100000.0000000000         0.0000000000
      39200000.0000000000         0.0000000000
      39300000.0000000000         0.0000000000
      39400000.0000000000         0.0000000000
      39500000.0000000000         0.0000000000
      39600000.0000000000         0.0000000000
      39700000.0000000000         0.0000000000
      39700000.0000000000         0.0000000000
      39800000.0000000000         0.0000000000
      39900000.0000000000         0.0000000000
      40000000.0000000000         0.0000000000
      40100000.0000000000         0.0000000000
      40200000.0000000000         0.0000000000
      40300000.0000000000         0.0000000000
      40300000.0000000000         0.0000000000
      40400000.0000000000         0.0000000000
      40500000.0000000000         0.0000000000
      40600000.0000000000         0.0000000000
      40700000.0000000000         0.0000000000
      40800000.0000000000         0.0000000000
      40900000.0000000000         0.0000000000
      41000000.0000000000         0.0000000000
      41000000.0000000000         0.0000000000
      41100000.0000000000         0.0000000000
      41200000.0000000000         0.0000000000
      41300000.0000000000         0.0000000000
      41400000.0000000000         0.0000000000
      41500000.0000000000         0.0000000000
      41600000.0000000000         0.0000000000
      41600000.0000000000         0.0000000000
      41700000.0000000000         0.0000000000
      41800000.0000000000         0.0000000000
      41900000.0000000000         0.0000000000
      42000000.0000000000         0.0000000000
      42100000.0000000000         0.0000000000
      42200000.0000000000         0.0000000000
      42200000.0000000000         0.0000000000
      42300000.0000000000         0.0000000000
      42400000.0000000000         0.0000000000
      42500000.0000000000         0.0000000000
      42600000.0000000000         0.0000000000
      42700000.0000000000         0.0000000000
      42800000.0000000000         0.0000000000
      42900000.0000000000         0.0000000000
      42900000.0000000000         0.0000000000
      43000000.0000000000         0.0000000000
      43100000.0000000000         0.0000000000
      43200000.0000000000        20.0000000000
      43300000.0000000000        20.0000000000
      43400000.0000000000        20.0000000000
      43500000.0000000000        20.0000000000
      43500000.0000000000        20.0000000000
      43600000.0000000000        20.0000000000
      43700000.0000000000        20.0000000000
      43800000.0000000000        20.0000000000
      43900000.0000000000        20.0000000000
      44000000.0000000000        20.0000000000
      44100000.0000000000        20.0000000000
      44200000.0000000000        20.0000000000
      44200000.0000000000        20.0000000000
      44300000.0000000000        20.0000000000
      44400000.0000000000        20.0000000000
      44500000.0000000000        20.0000000000
      44600000.0000000000        20.0000000000
      44700000.0000000000        20.0000000000
      44800000.0000000000        20.0000000000
      44800000.0000000000        20.0000000000
      44900000.0000000000        20.0000000000
      45000000.0000000000        20.0000000000
      45100000.0000000000        20.0000000000
      45200000.0000000000        20.0000000000
      45300000.0000000000        20.0000000000
      45400000.0000000000        20.0000000000
      45400000.0000000000        20.0000000000
      45500000.0000000000        20.0000000000
      45600000.0000000000        20.0000000000
      45700000.0000000000        20.0000000000
      45800000.0000000000        20.0000000000
      45900000.0000000000        20.0000000000
      46000000.0000000000        20.0000000000
      46100000.0000000000        20.0000000000
      46100000.0000000000        20.0000000000
      46200000.0000000000        20.0000000000
      46300000.0000000000        20.0000000000
      46400000.0000000000        20.0000000000
      46500000.0000000000        20.0000000000
      46600000.0000000000        20.0000000000
      46700000.0000000000        20.0000000000
      46700000.0000000000        20.0000000000
      46800000.0000000000        20.0000000000
      46900000.0000000000        20.0000000000
      47000000.0000000000        20.0000000000
      47100000.0000000000        20.0000000000
      47200000.0000000000        20.0000000000
      47300000.0000000000        20.0000000000
      47300000.0000000000        20.0000000000
      47400000.0000000000        20.0000000000
      47500000.0000000000        20.0000000000
      47600000.0000000000        20.0000000000
      47700000.0000000000        20.0000000000
      47800000.0000000000        20.0000000000
      47900000.0000000000        20.0000000000
      48000000.0000000000        20.0000000000
      48000000.0000000000        20.0000000000
      48100000.0000000000        20.0000000000
      48200000.0000000000        20.0000000000
      48300000.0000000000        20.0000000000
      48400000.0000000000        20.0000000000
      48500000.0000000000        20.0000000000
      48600000.0000000000        20.0000000000
      48600000.0000000000        20.0000000000
      48700000.0000000000        20.0000000000
      48800000.0000000000        20.0000000000
      48900000.0000000000        20.0000000000
      49000000.0000000000        20.0000000000
      49100000.0000000000        20.0000000000
      49200000.0000000000        20.0000000000
      49200000.0000000000        20.0000000000
      49300000.0000000000        20.0000000000
      49400000.0000000000        20.0000000000
      49500000.0000000000        20.0000000000
      49600000.0000000000        20.0000000000
      49700000.0000000000        20.0000000000
      49800000.0000000000        20.0000000000
      49900000.0000000000        20.0000000000
      49900000.0000000000        20.0000000000
      50000000.0000000000        20.0000000000
      50100000.0000000000        20.0000000000
      50200000.0000000000        20.0000000000
      50300000.0000000000        20.0000000000
      50400000.0000000000        20.0000000000
      50500000.0000000000        20.0000000000
      50500000.0000000000        20.0000000000
      50600000.0000000000        20.0000000000
      50700000.0000000000        20.0000000000
      50800000.0000000000        20.0000000000
      50900000.0000000000        20.0000000000
      51000000.0000000000        20.0000000000
      51100000.0000000000        20.0000000000
      51100000.0000000000        20.0000000000
      51200000.0000000000        20.0000000000
      51300000.0000000000        20.0000000000
      51400000.0000000000        20.0000000000
      51500000.0000000000        20.0000000000
      51600000.0000000000        20.0000000000
      51700000.0000000000        20.0000000000
      51800000.0000000000        20.0000000000
      51800000.0000000000        20.0000000000
      51900000.0000000000        20.0000000000
      52000000.0000000000        20.0000000000
      52100000.0000000000        20.0000000000
      52200000.0000000000        20.0000000000
      52300000.0000000000        20.0000000000
      52400000.0000000000        20.0000000000
      52400000.0000000000        20.0000000000
      52500000.0000000000        20.0000000000
      52600000.0000000000        20.0000000000
      52700000.0000000000        20.0000000000
      52800000.0000000000        20.0000000000
      52900000.0000000000        20.0000000000
      53000000.0000000000        20.0000000000
      53000000.0000000000        20.0000000000
      53100000.0000000000        20.0000000000
      53200000.0000000000        20.0000000000
      53300000.0000000000        20.0000000000
      53400000.0000000000        20.0000000000
      53500000.0000000000        20.0000000000
      53600000.0000000000        20.0000000000
      53700000.0000000000        20.0000000000
      53700000.0000000000        20.0000000000
      53800000.0000000000        20.0000000000
      53900000.0000000000        20.0000000000
      54000000.0000000000        20.0000000000
      54100000.0000000000        20.0000000000
      54200000.0000000000        20.0000000000
      54300000.0000000000        20.0000000000
      54300000.0000000000        20.0000000000
      54400000.0000000000        20.0000000000
      54500000.0000000000        20.0000000000
      54600000.0000000000        20.0000000000
      54700000.0000000000        20.0000000000
      54800000.0000000000        20.0000000000
      54900000.0000000000        20.0000000000
      55000000.0000000000         0.0000000000
      55000000.0000000000         0.0000000000
      55100000.0000000000         0.0000000000
      55200000.0000000000         0.0000000000
      55300000.0000000000         0.0000000000
      55400000.0000000000         0.0000000000
      55500000.0000000000         0.0000000000
      55600000.0000000000         0.0000000000
      55600000.0000000000         0.0000000000
      55700000.0000000000         0.0000000000
      55800000.0000000000         0.0000000000
      55900000.0000000000         0.0000000000
      56000000.0000000000         0.0000000000
      56100000.0000000000         0.0000000000
      56200000.0000000000         0.0000000000
      56200000.0000000000         0.0000000000
      56300000.0000000000         0.0000000000
      56400000.0000000000         0.0000000000
      56500000.0000000000         0.0000000000
      56600000.0000000000         0.0000000000
      56700000.0000000000         0.0000000000
      56800000.0000000000         0.0000000000
      56900000.0000000000         0.0000000000
      56900000.0000000000         0.0000000000
      57000000.0000000000         0.0000000000
      57100000.0000000000         0.0000000000
      57200000.0000000000         0.0000000000
      57300000.0000000000         0.0000000000
      57400000.0000000000         0.0000000000
      57500000.0000000000         0.0000000000
      57500000.0000000000         0.0000000000
      57600000.0000000000         0.0000000000
      57700000.0000000000         0.0000000000
      57800000.0000000000         0.0000000000
      57900000.0000000000         0.0000000000
      58000000.0000000000         0.0000000000
      58100000.0000000000         0.0000000000
      58100000.0000000000         0.0000000000
      58200000.0000000000         0.0000000000
      58300000.0000000000         0.0000000000
      58400000.0000000000         0.0000000000
      58500000.0000000000         0.0000000000
      58600000.0000000000         0.0000000000
      58700000.0000000000         0.0000000000
      58800000.0000000000         0.0000000000
      58800000.0000000000         0.0000000000
      58900000.0000000000         0.0000000000
      59000000.0000000000         0.0000000000
      59100000.0000000000         0.0000000000
      59200000.0000000000         0.0000000000
      59300000.0000000000         0.0000000000
      59400000.0000000000         0.0000000000
      59400000.0000000000         0.0000000000
      59500000.0000000000         0.0000000000
      59600000.0000000000         0.0000000000
      59700000.0000000000         0.0000000000
      59800000.0000000000         0.0000000000
      59900000.0000000000         0.0000000000
      60000000.0000000000         0.0000000000
      60000000.0000000000         0.0000000000
      60100000.0000000000         0.0000000000
      60200000.0000000000         0.0000000000
      60300000.0000000000         0.0000000000
      60400000.0000000000         0.0000000000
      60500000.0000000000         0.0000000000
      60600000.0000000000         0.0000000000
      60700000.0000000000         0.0000000000
      60700000.0000000000         0.0000000000
      60800000.0000000000         0.0000000000
      60900000.0000000000         0.0000000000
      61000000.0000000000         0.0000000000
      61100000.0000000000         0.0000000000
      61200000.0000000000         0.0000000000
      61300000.0000000000         0.0000000000
      61300000.0000000000         0.0000000000
      61400000.0000000000         0.0000000000
      61500000.0000000000         0.0000000000
      61600000.0000000000         0.0000000000
      61700000.0000000000         0.0000000000
      61800000.0000000000         0.0000000000
      61900000.0000000000         0.0000000000
      61900000.0000000000         0.0000000000
      62000000.0000000000         0.0000000000
      62100000.0000000000         0.0000000000
      62200000.0000000000         0.0000000000
      62300000.0000000000         0.0000000000
      62400000.0000000000         0.0000000000
      62500000.0000000000         0.0000000000
      62600000.0000000000         0.0000000000
      62600000.0000000000         0.0000000000
      62700000.0000000000         0.0000000000
      62800000.0000000000         0.0000000000
      62900000.0000000000         0.0000000000
      63000000.0000000000         0.0000000000
      63100000.0000000000         0.0000000000
      63200000.0000000000         0.0000000000
      63200000.0000000000         0.0000000000
      63300000.0000000000         0.0000000000
      63400000.0000000000         0.0000000000
      63500000.0000000000         0.0000000000
      63600000.0000000000         0.0000000000
      63700000.0000000000         0.0000000000
      63800000.0000000000         0.0000000000
      63800000.0000000000         0.0000000000
      63900000.0000000000         0.0000000000
      64000000.0000000000         0.0000000000
      64100000.0000000000         0.0000000000
      64200000.0000000000         0.0000000000
      64300000.0000000000         0.0000000000
      64400000.0000000000         0.0000000000
      64500000.0000000000         0.0000000000
      64500000.0000000000         0.0000000000
      64600000.0000000000         0.0000000000
      64700000.0000000000         0.0000000000
      64800000.0000000000         0.0000000000
      64900000.0000000000         0.0000000000
      65000000.0000000000         0.0000000000
      65100000.0000000000         0.0000000000
      65100000.0000000000         0.0000000000
      65200000.0000000000         0.0000000000
      65300000.0000000000         0.0000000000
      65400000.0000000000         0.0000000000
      65500000.0000000000         0.0000000000



            AREAL INFILTRATION RATE
 READING ON UNIT   19 WITH FORMAT: (10F4.0)            

            1           2           3           4           5           6           7           8           9          10
 ........................................................................................................................
   1   1.0000E-10  2.0000E-10   0.000       0.000       0.000       0.000       0.000       0.000       0.000       0.000    
   2   2.0000E-10  1.0000E-10  2.0000E-10   0.000       0.000      8.0000E-10  8.0000E-10  5.0000E-10   0.000       0.000    
   3    0.000      5.0000E-10  1.0000E-10  1.0000E-10  8.0000E-10  8.0000E-10  5.0000E-10  5.0000E-10   0.000       0.000    
   4   8.0000E-10  5.0000E-10  1.0000E-10  1.0000E-10  1.0000E-10  1.0000E-10  1.0000E-10  1.0000E-10  2.0000E-10   0.000    
   5   8.0000E-10  5.0000E-10  1.0000E-10  1.0000E-10  1.0000E-10  1.0000E-10  1.0000E-10  1.0000E-10  1.0000E-10  1.0000E-10
   6   8.0000E-10  5.0000E-10  5.0000E-10  2.0000E-10  2.0000E-10  1.0000E-10  1.0000E-10  1.0000E-10  1.0000E-10  5.0000E-10
   7   8.0000E-10  5.0000E-10  5.0000E-10  2.0000E-10  2.0000E-10  1.0000E-10  1.0000E-10  2.0000E-10  2.0000E-10   0.000    
   8    0.000      5.0000E-10  5.0000E-10  2.0000E-10  2.0000E-10  1.0000E-10  1.0000E-10  2.0000E-10  5.0000E-10   0.000    
   9    0.000      5.0000E-10  5.0000E-10  2.0000E-10  2.0000E-10  1.0000E-10  1.0000E-10  2.0000E-10  5.0000E-10   0.000    
  10    0.000      5.0000E-10  5.0000E-10  2.0000E-10  2.0000E-10  1.0000E-10  1.0000E-10  2.0000E-10  5.0000E-10  8.0000E-10
  11    0.000      1.0000E-10  1.0000E-10  1.0000E-10  1.0000E-10  1.0000E-10  1.0000E-10  2.0000E-10  5.0000E-10   0.000    
  12   1.0000E-10  1.0000E-10  1.0000E-10  1.0000E-10  1.0000E-10  1.0000E-10  1.0000E-10  1.0000E-10  2.0000E-10   0.000    
  13   1.0000E-10  1.0000E-10  2.0000E-10  2.0000E-10  2.0000E-10  2.0000E-10  2.0000E-10  1.0000E-10  1.0000E-10   0.000    
  14    0.000      2.0000E-10  5.0000E-10  5.0000E-10  5.0000E-10  5.0000E-10  5.0000E-10  2.0000E-10  1.0000E-10   0.000    
  15    0.000       0.000      8.0000E-10  8.0000E-10  8.0000E-10  8.0000E-10   0.000       0.000       0.000       0.000    

                  ET RATE =  1.000000E-08

      ET EXTINCTION DEPTH =   5.00000    

 EXTINCTION WATER CONTENT =  5.000000E-02

EXTINCTION WATER CONTENT FOR CELL AT ROW     1, COLUMN     1 IS LESS THAN RESIDUAL WATER CONTENT-- SETTING EXTINCTION WATER CONTENT EQUAL TO RESIDUAL WATER CONTENT

EXTINCTION WATER CONTENT FOR CELL AT ROW     1, COLUMN     2 IS LESS THAN RESIDUAL WATER CONTENT-- SETTING EXTINCTION WATER CONTENT EQUAL TO RESIDUAL WATER CONTENT

EXTINCTION WATER CONTENT FOR CELL AT ROW     2, COLUMN     1 IS LESS THAN RESIDUAL WATER CONTENT-- SETTING EXTINCTION WATER CONTENT EQUAL TO RESIDUAL WATER CONTENT

EXTINCTION WATER CONTENT FOR CELL AT ROW     2, COLUMN     2 IS LESS THAN RESIDUAL WATER CONTENT-- SETTING EXTINCTION WATER CONTENT EQUAL TO RESIDUAL WATER CONTENT

EXTINCTION WATER CONTENT FOR CELL AT ROW     2, COLUMN     3 IS LESS THAN RESIDUAL WATER CONTENT-- SETTING EXTINCTION WATER CONTENT EQUAL TO RESIDUAL WATER CONTENT

EXTINCTION WATER CONTENT FOR CELL AT ROW     2, COLUMN     6 IS LESS THAN RESIDUAL WATER CONTENT-- SETTING EXTINCTION WATER CONTENT EQUAL TO RESIDUAL WATER CONTENT

EXTINCTION WATER CONTENT FOR CELL AT ROW     2, COLUMN     7 IS LESS THAN RESIDUAL WATER CONTENT-- SETTING EXTINCTION WATER CONTENT EQUAL TO RESIDUAL WATER CONTENT

EXTINCTION WATER CONTENT FOR CELL AT ROW     2, COLUMN     8 IS LESS THAN RESIDUAL WATER CONTENT-- SETTING EXTINCTION WATER CONTENT EQUAL TO RESIDUAL WATER CONTENT

EXTINCTION WATER CONTENT FOR CELL AT ROW     3, COLUMN     2 IS LESS THAN RESIDUAL WATER CONTENT-- SETTING EXTINCTION WATER CONTENT EQUAL TO RESIDUAL WATER CONTENT

EXTINCTION WATER CONTENT FOR CELL AT ROW     3, COLUMN     3 IS LESS THAN RESIDUAL WATER CONTENT-- SETTING EXTINCTION WATER CONTENT EQUAL TO RESIDUAL WATER CONTENT

EXTINCTION WATER CONTENT FOR CELL AT ROW     3, COLUMN     4 IS LESS THAN RESIDUAL WATER CONTENT-- SETTING EXTINCTION WATER CONTENT EQUAL TO RESIDUAL WATER CONTENT

EXTINCTION WATER CONTENT FOR CELL AT ROW     3, COLUMN     5 IS LESS THAN RESIDUAL WATER CONTENT-- SETTING EXTINCTION WATER CONTENT EQUAL TO RESIDUAL WATER CONTENT

EXTINCTION WATER CONTENT FOR CELL AT ROW     3, COLUMN     6 IS LESS THAN RESIDUAL WATER CONTENT-- SETTING EXTINCTION WATER CONTENT EQUAL TO RESIDUAL WATER CONTENT

EXTINCTION WATER CONTENT FOR CELL AT ROW     3, COLUMN     7 IS LESS THAN RESIDUAL WATER CONTENT-- SETTING EXTINCTION WATER CONTENT EQUAL TO RESIDUAL WATER CONTENT

EXTINCTION WATER CONTENT FOR CELL AT ROW     3, COLUMN     8 IS LESS THAN RESIDUAL WATER CONTENT-- SETTING EXTINCTION WATER CONTENT EQUAL TO RESIDUAL WATER CONTENT

EXTINCTION WATER CONTENT FOR CELL AT ROW     4, COLUMN     1 IS LESS THAN RESIDUAL WATER CONTENT-- SETTING EXTINCTION WATER CONTENT EQUAL TO RESIDUAL WATER CONTENT

EXTINCTION WATER CONTENT FOR CELL AT ROW     4, COLUMN     2 IS LESS THAN RESIDUAL WATER CONTENT-- SETTING EXTINCTION WATER CONTENT EQUAL TO RESIDUAL WATER CONTENT

EXTINCTION WATER CONTENT FOR CELL AT ROW     4, COLUMN     3 IS LESS THAN RESIDUAL WATER CONTENT-- SETTING EXTINCTION WATER CONTENT EQUAL TO RESIDUAL WATER CONTENT

EXTINCTION WATER CONTENT FOR CELL AT ROW     4, COLUMN     4 IS LESS THAN RESIDUAL WATER CONTENT-- SETTING EXTINCTION WATER CONTENT EQUAL TO RESIDUAL WATER CONTENT

EXTINCTION WATER CONTENT FOR CELL AT ROW     4, COLUMN     5 IS LESS THAN RESIDUAL WATER CONTENT-- SETTING EXTINCTION WATER CONTENT EQUAL TO RESIDUAL WATER CONTENT

EXTINCTION WATER CONTENT FOR CELL AT ROW     4, COLUMN     6 IS LESS THAN RESIDUAL WATER CONTENT-- SETTING EXTINCTION WATER CONTENT EQUAL TO RESIDUAL WATER CONTENT

EXTINCTION WATER CONTENT FOR CELL AT ROW     4, COLUMN     7 IS LESS THAN RESIDUAL WATER CONTENT-- SETTING EXTINCTION WATER CONTENT EQUAL TO RESIDUAL WATER CONTENT

EXTINCTION WATER CONTENT FOR CELL AT ROW     4, COLUMN     8 IS LESS THAN RESIDUAL WATER CONTENT-- SETTING EXTINCTION WATER CONTENT EQUAL TO RESIDUAL WATER CONTENT

EXTINCTION WATER CONTENT FOR CELL AT ROW     4, COLUMN     9 IS LESS THAN RESIDUAL WATER CONTENT-- SETTING EXTINCTION WATER CONTENT EQUAL TO RESIDUAL WATER CONTENT

EXTINCTION WATER CONTENT FOR CELL AT ROW     5, COLUMN     1 IS LESS THAN RESIDUAL WATER CONTENT-- SETTING EXTINCTION WATER CONTENT EQUAL TO RESIDUAL WATER CONTENT

EXTINCTION WATER CONTENT FOR CELL AT ROW     5, COLUMN     2 IS LESS THAN RESIDUAL WATER CONTENT-- SETTING EXTINCTION WATER CONTENT EQUAL TO RESIDUAL WATER CONTENT

EXTINCTION WATER CONTENT FOR CELL AT ROW     5, COLUMN     3 IS LESS THAN RESIDUAL WATER CONTENT-- SETTING EXTINCTION WATER CONTENT EQUAL TO RESIDUAL WATER CONTENT

EXTINCTION WATER CONTENT FOR CELL AT ROW     5, COLUMN     4 IS LESS THAN RESIDUAL WATER CONTENT-- SETTING EXTINCTION WATER CONTENT EQUAL TO RESIDUAL WATER CONTENT

EXTINCTION WATER CONTENT FOR CELL AT ROW     5, COLUMN     5 IS LESS THAN RESIDUAL WATER CONTENT-- SETTING EXTINCTION WATER CONTENT EQUAL TO RESIDUAL WATER CONTENT

EXTINCTION WATER CONTENT FOR CELL AT ROW     5, COLUMN     6 IS LESS THAN RESIDUAL WATER CONTENT-- SETTING EXTINCTION WATER CONTENT EQUAL TO RESIDUAL WATER CONTENT

EXTINCTION WATER CONTENT FOR CELL AT ROW     5, COLUMN     7 IS LESS THAN RESIDUAL WATER CONTENT-- SETTING EXTINCTION WATER CONTENT EQUAL TO RESIDUAL WATER CONTENT

EXTINCTION WATER CONTENT FOR CELL AT ROW     5, COLUMN     8 IS LESS THAN RESIDUAL WATER CONTENT-- SETTING EXTINCTION WATER CONTENT EQUAL TO RESIDUAL WATER CONTENT

EXTINCTION WATER CONTENT FOR CELL AT ROW     5, COLUMN     9 IS LESS THAN RESIDUAL WATER CONTENT-- SETTING EXTINCTION WATER CONTENT EQUAL TO RESIDUAL WATER CONTENT

EXTINCTION WATER CONTENT FOR CELL AT ROW     5, COLUMN    10 IS LESS THAN RESIDUAL WATER CONTENT-- SETTING EXTINCTION WATER CONTENT EQUAL TO RESIDUAL WATER CONTENT

EXTINCTION WATER CONTENT FOR CELL AT ROW     6, COLUMN     1 IS LESS THAN RESIDUAL WATER CONTENT-- SETTING EXTINCTION WATER CONTENT EQUAL TO RESIDUAL WATER CONTENT

EXTINCTION WATER CONTENT FOR CELL AT ROW     6, COLUMN     2 IS LESS THAN RESIDUAL WATER CONTENT-- SETTING EXTINCTION WATER CONTENT EQUAL TO RESIDUAL WATER CONTENT

EXTINCTION WATER CONTENT FOR CELL AT ROW     6, COLUMN     3 IS LESS THAN RESIDUAL WATER CONTENT-- SETTING EXTINCTION WATER CONTENT EQUAL TO RESIDUAL WATER CONTENT

EXTINCTION WATER CONTENT FOR CELL AT ROW     6, COLUMN     4 IS LESS THAN RESIDUAL WATER CONTENT-- SETTING EXTINCTION WATER CONTENT EQUAL TO RESIDUAL WATER CONTENT

EXTINCTION WATER CONTENT FOR CELL AT ROW     6, COLUMN     5 IS LESS THAN RESIDUAL WATER CONTENT-- SETTING EXTINCTION WATER CONTENT EQUAL TO RESIDUAL WATER CONTENT

EXTINCTION WATER CONTENT FOR CELL AT ROW     6, COLUMN     6 IS LESS THAN RESIDUAL WATER CONTENT-- SETTING EXTINCTION WATER CONTENT EQUAL TO RESIDUAL WATER CONTENT

EXTINCTION WATER CONTENT FOR CELL AT ROW     6, COLUMN     7 IS LESS THAN RESIDUAL WATER CONTENT-- SETTING EXTINCTION WATER CONTENT EQUAL TO RESIDUAL WATER CONTENT

EXTINCTION WATER CONTENT FOR CELL AT ROW     6, COLUMN     8 IS LESS THAN RESIDUAL WATER CONTENT-- SETTING EXTINCTION WATER CONTENT EQUAL TO RESIDUAL WATER CONTENT

EXTINCTION WATER CONTENT FOR CELL AT ROW     6, COLUMN     9 IS LESS THAN RESIDUAL WATER CONTENT-- SETTING EXTINCTION WATER CONTENT EQUAL TO RESIDUAL WATER CONTENT

EXTINCTION WATER CONTENT FOR CELL AT ROW     6, COLUMN    10 IS LESS THAN RESIDUAL WATER CONTENT-- SETTING EXTINCTION WATER CONTENT EQUAL TO RESIDUAL WATER CONTENT

EXTINCTION WATER CONTENT FOR CELL AT ROW     7, COLUMN     1 IS LESS THAN RESIDUAL WATER CONTENT-- SETTING EXTINCTION WATER CONTENT EQUAL TO RESIDUAL WATER CONTENT

EXTINCTION WATER CONTENT FOR CELL AT ROW     7, COLUMN     2 IS LESS THAN RESIDUAL WATER CONTENT-- SETTING EXTINCTION WATER CONTENT EQUAL TO RESIDUAL WATER CONTENT

EXTINCTION WATER CONTENT FOR CELL AT ROW     7, COLUMN     3 IS LESS THAN RESIDUAL WATER CONTENT-- SETTING EXTINCTION WATER CONTENT EQUAL TO RESIDUAL WATER CONTENT

EXTINCTION WATER CONTENT FOR CELL AT ROW     7, COLUMN     4 IS LESS THAN RESIDUAL WATER CONTENT-- SETTING EXTINCTION WATER CONTENT EQUAL TO RESIDUAL WATER CONTENT

EXTINCTION WATER CONTENT FOR CELL AT ROW     7, COLUMN     5 IS LESS THAN RESIDUAL WATER CONTENT-- SETTING EXTINCTION WATER CONTENT EQUAL TO RESIDUAL WATER CONTENT

EXTINCTION WATER CONTENT FOR CELL AT ROW     7, COLUMN     6 IS LESS THAN RESIDUAL WATER CONTENT-- SETTING EXTINCTION WATER CONTENT EQUAL TO RESIDUAL WATER CONTENT

EXTINCTION WATER CONTENT FOR CELL AT ROW     7, COLUMN     7 IS LESS THAN RESIDUAL WATER CONTENT-- SETTING EXTINCTION WATER CONTENT EQUAL TO RESIDUAL WATER CONTENT

EXTINCTION WATER CONTENT FOR CELL AT ROW     7, COLUMN     8 IS LESS THAN RESIDUAL WATER CONTENT-- SETTING EXTINCTION WATER CONTENT EQUAL TO RESIDUAL WATER CONTENT

EXTINCTION WATER CONTENT FOR CELL AT ROW     7, COLUMN     9 IS LESS THAN RESIDUAL WATER CONTENT-- SETTING EXTINCTION WATER CONTENT EQUAL TO RESIDUAL WATER CONTENT

EXTINCTION WATER CONTENT FOR CELL AT ROW     8, COLUMN     2 IS LESS THAN RESIDUAL WATER CONTENT-- SETTING EXTINCTION WATER CONTENT EQUAL TO RESIDUAL WATER CONTENT

EXTINCTION WATER CONTENT FOR CELL AT ROW     8, COLUMN     3 IS LESS THAN RESIDUAL WATER CONTENT-- SETTING EXTINCTION WATER CONTENT EQUAL TO RESIDUAL WATER CONTENT

EXTINCTION WATER CONTENT FOR CELL AT ROW     8, COLUMN     4 IS LESS THAN RESIDUAL WATER CONTENT-- SETTING EXTINCTION WATER CONTENT EQUAL TO RESIDUAL WATER CONTENT

EXTINCTION WATER CONTENT FOR CELL AT ROW     8, COLUMN     5 IS LESS THAN RESIDUAL WATER CONTENT-- SETTING EXTINCTION WATER CONTENT EQUAL TO RESIDUAL WATER CONTENT

EXTINCTION WATER CONTENT FOR CELL AT ROW     8, COLUMN     6 IS LESS THAN RESIDUAL WATER CONTENT-- SETTING EXTINCTION WATER CONTENT EQUAL TO RESIDUAL WATER CONTENT

EXTINCTION WATER CONTENT FOR CELL AT ROW     8, COLUMN     7 IS LESS THAN RESIDUAL WATER CONTENT-- SETTING EXTINCTION WATER CONTENT EQUAL TO RESIDUAL WATER CONTENT

EXTINCTION WATER CONTENT FOR CELL AT ROW     8, COLUMN     8 IS LESS THAN RESIDUAL WATER CONTENT-- SETTING EXTINCTION WATER CONTENT EQUAL TO RESIDUAL WATER CONTENT

EXTINCTION WATER CONTENT FOR CELL AT ROW     8, COLUMN     9 IS LESS THAN RESIDUAL WATER CONTENT-- SETTING EXTINCTION WATER CONTENT EQUAL TO RESIDUAL WATER CONTENT

EXTINCTION WATER CONTENT FOR CELL AT ROW     9, COLUMN     2 IS LESS THAN RESIDUAL WATER CONTENT-- SETTING EXTINCTION WATER CONTENT EQUAL TO RESIDUAL WATER CONTENT

EXTINCTION WATER CONTENT FOR CELL AT ROW     9, COLUMN     3 IS LESS THAN RESIDUAL WATER CONTENT-- SETTING EXTINCTION WATER CONTENT EQUAL TO RESIDUAL WATER CONTENT

EXTINCTION WATER CONTENT FOR CELL AT ROW     9, COLUMN     4 IS LESS THAN RESIDUAL WATER CONTENT-- SETTING EXTINCTION WATER CONTENT EQUAL TO RESIDUAL WATER CONTENT

EXTINCTION WATER CONTENT FOR CELL AT ROW     9, COLUMN     5 IS LESS THAN RESIDUAL WATER CONTENT-- SETTING EXTINCTION WATER CONTENT EQUAL TO RESIDUAL WATER CONTENT

EXTINCTION WATER CONTENT FOR CELL AT ROW     9, COLUMN     6 IS LESS THAN RESIDUAL WATER CONTENT-- SETTING EXTINCTION WATER CONTENT EQUAL TO RESIDUAL WATER CONTENT

EXTINCTION WATER CONTENT FOR CELL AT ROW     9, COLUMN     7 IS LESS THAN RESIDUAL WATER CONTENT-- SETTING EXTINCTION WATER CONTENT EQUAL TO RESIDUAL WATER CONTENT

EXTINCTION WATER CONTENT FOR CELL AT ROW     9, COLUMN     8 IS LESS THAN RESIDUAL WATER CONTENT-- SETTING EXTINCTION WATER CONTENT EQUAL TO RESIDUAL WATER CONTENT

EXTINCTION WATER CONTENT FOR CELL AT ROW     9, COLUMN     9 IS LESS THAN RESIDUAL WATER CONTENT-- SETTING EXTINCTION WATER CONTENT EQUAL TO RESIDUAL WATER CONTENT

EXTINCTION WATER CONTENT FOR CELL AT ROW    10, COLUMN     2 IS LESS THAN RESIDUAL WATER CONTENT-- SETTING EXTINCTION WATER CONTENT EQUAL TO RESIDUAL WATER CONTENT

EXTINCTION WATER CONTENT FOR CELL AT ROW    10, COLUMN     3 IS LESS THAN RESIDUAL WATER CONTENT-- SETTING EXTINCTION WATER CONTENT EQUAL TO RESIDUAL WATER CONTENT

EXTINCTION WATER CONTENT FOR CELL AT ROW    10, COLUMN     4 IS LESS THAN RESIDUAL WATER CONTENT-- SETTING EXTINCTION WATER CONTENT EQUAL TO RESIDUAL WATER CONTENT

EXTINCTION WATER CONTENT FOR CELL AT ROW    10, COLUMN     5 IS LESS THAN RESIDUAL WATER CONTENT-- SETTING EXTINCTION WATER CONTENT EQUAL TO RESIDUAL WATER CONTENT

EXTINCTION WATER CONTENT FOR CELL AT ROW    10, COLUMN     6 IS LESS THAN RESIDUAL WATER CONTENT-- SETTING EXTINCTION WATER CONTENT EQUAL TO RESIDUAL WATER CONTENT

EXTINCTION WATER CONTENT FOR CELL AT ROW    10, COLUMN     7 IS LESS THAN RESIDUAL WATER CONTENT-- SETTING EXTINCTION WATER CONTENT EQUAL TO RESIDUAL WATER CONTENT

EXTINCTION WATER CONTENT FOR CELL AT ROW    10, COLUMN     8 IS LESS THAN RESIDUAL WATER CONTENT-- SETTING EXTINCTION WATER CONTENT EQUAL TO RESIDUAL WATER CONTENT

EXTINCTION WATER CONTENT FOR CELL AT ROW    10, COLUMN     9 IS LESS THAN RESIDUAL WATER CONTENT-- SETTING EXTINCTION WATER CONTENT EQUAL TO RESIDUAL WATER CONTENT

EXTINCTION WATER CONTENT FOR CELL AT ROW    10, COLUMN    10 IS LESS THAN RESIDUAL WATER CONTENT-- SETTING EXTINCTION WATER CONTENT EQUAL TO RESIDUAL WATER CONTENT

EXTINCTION WATER CONTENT FOR CELL AT ROW    11, COLUMN     2 IS LESS THAN RESIDUAL WATER CONTENT-- SETTING EXTINCTION WATER CONTENT EQUAL TO RESIDUAL WATER CONTENT

EXTINCTION WATER CONTENT FOR CELL AT ROW    11, COLUMN     3 IS LESS THAN RESIDUAL WATER CONTENT-- SETTING EXTINCTION WATER CONTENT EQUAL TO RESIDUAL WATER CONTENT

EXTINCTION WATER CONTENT FOR CELL AT ROW    11, COLUMN     4 IS LESS THAN RESIDUAL WATER CONTENT-- SETTING EXTINCTION WATER CONTENT EQUAL TO RESIDUAL WATER CONTENT

EXTINCTION WATER CONTENT FOR CELL AT ROW    11, COLUMN     5 IS LESS THAN RESIDUAL WATER CONTENT-- SETTING EXTINCTION WATER CONTENT EQUAL TO RESIDUAL WATER CONTENT

EXTINCTION WATER CONTENT FOR CELL AT ROW    11, COLUMN     6 IS LESS THAN RESIDUAL WATER CONTENT-- SETTING EXTINCTION WATER CONTENT EQUAL TO RESIDUAL WATER CONTENT

EXTINCTION WATER CONTENT FOR CELL AT ROW    11, COLUMN     7 IS LESS THAN RESIDUAL WATER CONTENT-- SETTING EXTINCTION WATER CONTENT EQUAL TO RESIDUAL WATER CONTENT

EXTINCTION WATER CONTENT FOR CELL AT ROW    11, COLUMN     8 IS LESS THAN RESIDUAL WATER CONTENT-- SETTING EXTINCTION WATER CONTENT EQUAL TO RESIDUAL WATER CONTENT

EXTINCTION WATER CONTENT FOR CELL AT ROW    11, COLUMN     9 IS LESS THAN RESIDUAL WATER CONTENT-- SETTING EXTINCTION WATER CONTENT EQUAL TO RESIDUAL WATER CONTENT

EXTINCTION WATER CONTENT FOR CELL AT ROW    12, COLUMN     1 IS LESS THAN RESIDUAL WATER CONTENT-- SETTING EXTINCTION WATER CONTENT EQUAL TO RESIDUAL WATER CONTENT

EXTINCTION WATER CONTENT FOR CELL AT ROW    12, COLUMN     2 IS LESS THAN RESIDUAL WATER CONTENT-- SETTING EXTINCTION WATER CONTENT EQUAL TO RESIDUAL WATER CONTENT

EXTINCTION WATER CONTENT FOR CELL AT ROW    12, COLUMN     3 IS LESS THAN RESIDUAL WATER CONTENT-- SETTING EXTINCTION WATER CONTENT EQUAL TO RESIDUAL WATER CONTENT

EXTINCTION WATER CONTENT FOR CELL AT ROW    12, COLUMN     4 IS LESS THAN RESIDUAL WATER CONTENT-- SETTING EXTINCTION WATER CONTENT EQUAL TO RESIDUAL WATER CONTENT

EXTINCTION WATER CONTENT FOR CELL AT ROW    12, COLUMN     5 IS LESS THAN RESIDUAL WATER CONTENT-- SETTING EXTINCTION WATER CONTENT EQUAL TO RESIDUAL WATER CONTENT

EXTINCTION WATER CONTENT FOR CELL AT ROW    12, COLUMN     6 IS LESS THAN RESIDUAL WATER CONTENT-- SETTING EXTINCTION WATER CONTENT EQUAL TO RESIDUAL WATER CONTENT

EXTINCTION WATER CONTENT FOR CELL AT ROW    12, COLUMN     7 IS LESS THAN RESIDUAL WATER CONTENT-- SETTING EXTINCTION WATER CONTENT EQUAL TO RESIDUAL WATER CONTENT

EXTINCTION WATER CONTENT FOR CELL AT ROW    12, COLUMN     8 IS LESS THAN RESIDUAL WATER CONTENT-- SETTING EXTINCTION WATER CONTENT EQUAL TO RESIDUAL WATER CONTENT

EXTINCTION WATER CONTENT FOR CELL AT ROW    12, COLUMN     9 IS LESS THAN RESIDUAL WATER CONTENT-- SETTING EXTINCTION WATER CONTENT EQUAL TO RESIDUAL WATER CONTENT

EXTINCTION WATER CONTENT FOR CELL AT ROW    13, COLUMN     1 IS LESS THAN RESIDUAL WATER CONTENT-- SETTING EXTINCTION WATER CONTENT EQUAL TO RESIDUAL WATER CONTENT

EXTINCTION WATER CONTENT FOR CELL AT ROW    13, COLUMN     2 IS LESS THAN RESIDUAL WATER CONTENT-- SETTING EXTINCTION WATER CONTENT EQUAL TO RESIDUAL WATER CONTENT

EXTINCTION WATER CONTENT FOR CELL AT ROW    13, COLUMN     3 IS LESS THAN RESIDUAL WATER CONTENT-- SETTING EXTINCTION WATER CONTENT EQUAL TO RESIDUAL WATER CONTENT

EXTINCTION WATER CONTENT FOR CELL AT ROW    13, COLUMN     4 IS LESS THAN RESIDUAL WATER CONTENT-- SETTING EXTINCTION WATER CONTENT EQUAL TO RESIDUAL WATER CONTENT

EXTINCTION WATER CONTENT FOR CELL AT ROW    13, COLUMN     5 IS LESS THAN RESIDUAL WATER CONTENT-- SETTING EXTINCTION WATER CONTENT EQUAL TO RESIDUAL WATER CONTENT

EXTINCTION WATER CONTENT FOR CELL AT ROW    13, COLUMN     6 IS LESS THAN RESIDUAL WATER CONTENT-- SETTING EXTINCTION WATER CONTENT EQUAL TO RESIDUAL WATER CONTENT

EXTINCTION WATER CONTENT FOR CELL AT ROW    13, COLUMN     7 IS LESS THAN RESIDUAL WATER CONTENT-- SETTING EXTINCTION WATER CONTENT EQUAL TO RESIDUAL WATER CONTENT

EXTINCTION WATER CONTENT FOR CELL AT ROW    13, COLUMN     8 IS LESS THAN RESIDUAL WATER CONTENT-- SETTING EXTINCTION WATER CONTENT EQUAL TO RESIDUAL WATER CONTENT

EXTINCTION WATER CONTENT FOR CELL AT ROW    13, COLUMN     9 IS LESS THAN RESIDUAL WATER CONTENT-- SETTING EXTINCTION WATER CONTENT EQUAL TO RESIDUAL WATER CONTENT

EXTINCTION WATER CONTENT FOR CELL AT ROW    14, COLUMN     2 IS LESS THAN RESIDUAL WATER CONTENT-- SETTING EXTINCTION WATER CONTENT EQUAL TO RESIDUAL WATER CONTENT

EXTINCTION WATER CONTENT FOR CELL AT ROW    14, COLUMN     3 IS LESS THAN RESIDUAL WATER CONTENT-- SETTING EXTINCTION WATER CONTENT EQUAL TO RESIDUAL WATER CONTENT

EXTINCTION WATER CONTENT FOR CELL AT ROW    14, COLUMN     4 IS LESS THAN RESIDUAL WATER CONTENT-- SETTING EXTINCTION WATER CONTENT EQUAL TO RESIDUAL WATER CONTENT

EXTINCTION WATER CONTENT FOR CELL AT ROW    14, COLUMN     5 IS LESS THAN RESIDUAL WATER CONTENT-- SETTING EXTINCTION WATER CONTENT EQUAL TO RESIDUAL WATER CONTENT

EXTINCTION WATER CONTENT FOR CELL AT ROW    14, COLUMN     6 IS LESS THAN RESIDUAL WATER CONTENT-- SETTING EXTINCTION WATER CONTENT EQUAL TO RESIDUAL WATER CONTENT

EXTINCTION WATER CONTENT FOR CELL AT ROW    14, COLUMN     7 IS LESS THAN RESIDUAL WATER CONTENT-- SETTING EXTINCTION WATER CONTENT EQUAL TO RESIDUAL WATER CONTENT

EXTINCTION WATER CONTENT FOR CELL AT ROW    14, COLUMN     8 IS LESS THAN RESIDUAL WATER CONTENT-- SETTING EXTINCTION WATER CONTENT EQUAL TO RESIDUAL WATER CONTENT

EXTINCTION WATER CONTENT FOR CELL AT ROW    14, COLUMN     9 IS LESS THAN RESIDUAL WATER CONTENT-- SETTING EXTINCTION WATER CONTENT EQUAL TO RESIDUAL WATER CONTENT

EXTINCTION WATER CONTENT FOR CELL AT ROW    15, COLUMN     3 IS LESS THAN RESIDUAL WATER CONTENT-- SETTING EXTINCTION WATER CONTENT EQUAL TO RESIDUAL WATER CONTENT

EXTINCTION WATER CONTENT FOR CELL AT ROW    15, COLUMN     4 IS LESS THAN RESIDUAL WATER CONTENT-- SETTING EXTINCTION WATER CONTENT EQUAL TO RESIDUAL WATER CONTENT

EXTINCTION WATER CONTENT FOR CELL AT ROW    15, COLUMN     5 IS LESS THAN RESIDUAL WATER CONTENT-- SETTING EXTINCTION WATER CONTENT EQUAL TO RESIDUAL WATER CONTENT

EXTINCTION WATER CONTENT FOR CELL AT ROW    15, COLUMN     6 IS LESS THAN RESIDUAL WATER CONTENT-- SETTING EXTINCTION WATER CONTENT EQUAL TO RESIDUAL WATER CONTENT
 
 SOLVING FOR HEAD 
                                                   Max.-Head-Change                         Max.-Flux-Residual
  Residual-Control   Outer-Iter.   Inner-Iter.     Column Row Layer    Maximum-Head-Change  Column Row Layer    Maximum-Flux-Residual          L2-NORM 
          0                 1           4             1    1     1      -0.5016628785E+02       3    3    1        -0.3473569614E+01      0.9416383857E+01
          0                 2           4             7    3     1      -0.2634045005E+02       1   13    1        -0.1281374989E+02      0.1472159495E+02
          0                 3           4             7    2     1       0.1342499137E+01       5   13    1        -0.1986602151E+01      0.2299809491E+01
          0                 4           4             5   14     1       0.1549090979E+00       5   13    1         0.1829931963E+00      0.2015882839E+00
          0                 5           3             5   14     1      -0.1268587341E-01       5   13    1        -0.1478238891E-01      0.1606266309E-01
          0                 6           2             5   14     1       0.9061484333E-03       5   13    1         0.1025393281E-02      0.1151935892E-02
          0                 7           1             5   14     1      -0.7937105453E-04       6   13    1        -0.9688814134E-04      0.1182096184E-03
          0                 8           1             6   13     1       0.2733400082E-04       6   13    1         0.4083091449E-04      0.4113883081E-04
          0                 9           1             6   13     1      -0.9540579120E-05       6   13    1        -0.1437435799E-04      0.1445988772E-04

    ------------------------------------------------
       NWT REQUIRED            9 OUTER ITERATIONS 
       AND A TOTAL OF         24 INNER ITERATIONS.
    ------------------------------------------------

 OUTPUT CONTROL FOR STRESS PERIOD    1   TIME STEP    1
    PRINT BUDGET
    SAVE BUDGET
 UBUDSV SAVING "   CONSTANT HEAD" ON UNIT102 AT TIME STEP     1, STRESS PERIOD    1
 UBUDSV SAVING "FLOW RIGHT FACE " ON UNIT102 AT TIME STEP     1, STRESS PERIOD    1
 UBUDSV SAVING "FLOW FRONT FACE " ON UNIT102 AT TIME STEP     1, STRESS PERIOD    1

  HEAD DEP BOUNDS   PERIOD    1   STEP     1
 BOUNDARY      1   LAYER   1   ROW    13   COL     1   RATE   -0.282072    
 BOUNDARY      2   LAYER   1   ROW    14   COL     9   RATE    0.293822    



 STREAM LISTING     PERIOD      1   STEP        1

 LAYER ROW COL. STREAM  RCH.  FLOW INTO     FLOW TO   FLOW OUT OF   OVRLND.     DIRECT     STREAM       STREAM     STREAM     STREAM   STREAMBED  STREAMBED
                SEG.NO.  NO.  STRM. RCH.    AQUIFER    STRM. RCH.    RUNOFF     PRECIP       ET          HEAD       DEPTH      WIDTH   CONDCTNC.   GRADIENT

   1    1    1     1     1    0.0000E+00  0.0000E+00   0.0000E+00  0.000E+00  0.000E+00  0.000E+00  1.09305E+03  0.000E+00  1.400E+01  6.300E-02  1.000E+00
   1    2    2     1     2    0.0000E+00  0.0000E+00   0.0000E+00  0.000E+00  0.000E+00  0.000E+00  1.08806E+03  0.000E+00  1.400E+01  9.800E-02  1.000E+00
   1    3    3     1     3    0.0000E+00  0.0000E+00   0.0000E+00  0.000E+00  0.000E+00  0.000E+00  1.08242E+03  0.000E+00  1.400E+01  8.400E-02  1.000E+00
   1    3    4     1     4    0.0000E+00  0.0000E+00   0.0000E+00  0.000E+00  0.000E+00  0.000E+00  1.07741E+03  0.000E+00  1.400E+01  7.770E-02  1.000E+00
   1    4    5     2     1    0.0000E+00  0.0000E+00   0.0000E+00  0.000E+00  0.000E+00  0.000E+00  1.07193E+03  0.000E+00  1.200E+01  7.800E-02  1.000E+00
   1    5    6     2     2    0.0000E+00  0.0000E+00   0.0000E+00  0.000E+00  0.000E+00  0.000E+00  1.06651E+03  0.000E+00  1.200E+01  6.000E-02  1.000E+00
   1    6    6     2     3    0.0000E+00  0.0000E+00   0.0000E+00  0.000E+00  0.000E+00  0.000E+00  1.06179E+03  0.000E+00  1.200E+01  6.000E-02  1.000E+00
   1    7    6     2     4    0.0000E+00  0.0000E+00   0.0000E+00  0.000E+00  0.000E+00  0.000E+00  1.05708E+03  0.000E+00  1.200E+01  6.000E-02  1.000E+00
   1    8    6     2     5    0.0000E+00  0.0000E+00   0.0000E+00  0.000E+00  0.000E+00  0.000E+00  1.05236E+03  0.000E+00  1.200E+01  6.000E-02  1.000E+00
   1    3    5     3     1    0.0000E+00  0.0000E+00   0.0000E+00  0.000E+00  0.000E+00  0.000E+00  1.07364E+03  0.000E+00  9.636E+00  7.227E-02  1.000E+00
   1    3    6     3     2    0.0000E+00  0.0000E+00   0.0000E+00  0.000E+00  0.000E+00  0.000E+00  1.07091E+03  0.000E+00  8.909E+00  6.682E-02  1.000E+00
   1    3    7     3     3    0.0000E+00  0.0000E+00   0.0000E+00  0.000E+00  0.000E+00  0.000E+00  1.06832E+03  0.000E+00  8.218E+00  5.547E-02  1.000E+00
   1    4    8     3     4    0.0000E+00  0.0000E+00   0.0000E+00  0.000E+00  0.000E+00  0.000E+00  1.06545E+03  0.000E+00  7.455E+00  6.709E-02  1.000E+00
   1    5    8     3     5    0.0000E+00  0.0000E+00   0.0000E+00  0.000E+00  0.000E+00  0.000E+00  1.06245E+03  0.000E+00  6.655E+00  4.991E-02  1.000E+00
   1    6    8     3     6    0.0000E+00  0.0000E+00   0.0000E+00  0.000E+00  0.000E+00  0.000E+00  1.06055E+03  0.000E+00  6.145E+00  1.844E-02  1.000E+00
   1    5   10     4     1    1.0000E+01  9.0963E-10   1.0000E+01  0.000E+00  0.000E+00  0.000E+00  1.07837E+03  6.385E-01  1.000E+01  2.500E-10  1.213E+00
   1    5    9     4     2    1.0000E+01  1.8193E-09   1.0000E+01  0.000E+00  0.000E+00  0.000E+00  1.07155E+03  6.385E-01  1.000E+01  5.000E-10  1.213E+00
   1    6    8     4     3    1.0000E+01  1.2735E-09   1.0000E+01  0.000E+00  0.000E+00  0.000E+00  1.06382E+03  6.385E-01  1.000E+01  3.500E-10  1.213E+00
   1    6    8     5     1    1.0000E+01  2.2055E-01   9.7795E+00  0.000E+00  0.000E+00  0.000E+00  1.05867E+03  6.690E-01  1.503E+01  6.011E-02  1.223E+00
   1    7    7     5     2    9.7795E+00  2.7112E-01   9.5083E+00  0.000E+00  0.000E+00  0.000E+00  1.05416E+03  6.631E-01  1.480E+01  7.401E-02  1.221E+00
   1    8    7     5     3    9.5083E+00  1.8678E-01   9.3215E+00  0.000E+00  0.000E+00  0.000E+00  1.04991E+03  6.576E-01  1.459E+01  5.107E-02  1.219E+00
   1    8    6     5     4    9.3215E+00  1.3192E-01   9.1896E+00  0.000E+00  0.000E+00  0.000E+00  1.04690E+03  6.537E-01  1.444E+01  3.610E-02  1.218E+00
   1    9    6     6     1    9.1896E+00  2.2019E-09   9.1896E+00  0.000E+00  0.000E+00  0.000E+00  1.04340E+03  6.698E-01  1.200E+01  6.000E-10  1.223E+00
   1   10    7     6     2    9.1896E+00  2.2019E-09   9.1896E+00  0.000E+00  0.000E+00  0.000E+00  1.03885E+03  6.698E-01  1.200E+01  6.000E-10  1.223E+00
   1   11    7     6     3    9.1896E+00  2.2019E-09   9.1896E+00  0.000E+00  0.000E+00  0.000E+00  1.03431E+03  6.698E-01  1.200E+01  6.000E-10  1.223E+00
   1   12    7     6     4    9.1896E+00  2.2019E-09   9.1896E+00  0.000E+00  0.000E+00  0.000E+00  1.02976E+03  6.698E-01  1.200E+01  6.000E-10  1.223E+00
   1   13    7     6     5    9.1896E+00  1.1405E-08   9.1896E+00  0.000E+00  0.000E+00  0.000E+00  1.02658E+03  6.698E-01  1.200E+01  2.400E-08  1.584E-01
   1   14    9     7     1    1.5000E+02  1.4543E+00   1.4855E+02  0.000E+00  0.000E+00  0.000E+00  1.03987E+03  2.287E+00  5.529E+01  5.593E-01  8.668E-01
   1   13    8     7     2    1.4855E+02  2.1696E+00   1.4638E+02  0.000E+00  0.000E+00  0.000E+00  1.03478E+03  2.278E+00  5.525E+01  6.147E-01  1.177E+00
   1   13    7     7     3    1.4638E+02  1.9998E+00   1.4438E+02  0.000E+00  0.000E+00  0.000E+00  1.02969E+03  2.267E+00  5.520E+01  5.583E-01  1.194E+00
   1   13    6     8     1    1.5357E+02  1.3089E+00   1.5226E+02  0.000E+00  0.000E+00  0.000E+00  1.02471E+03  2.837E+00  4.114E+01  4.192E-01  1.041E+00
   1   13    5     8     2    1.5226E+02  5.5547E-01   1.5170E+02  0.000E+00  0.000E+00  0.000E+00  1.01846E+03  2.831E+00  4.105E+01  4.183E-01  4.427E-01
   1   13    4     8     3    1.5170E+02 -1.1005E+00   1.5280E+02  0.000E+00  0.000E+00  0.000E+00  1.01221E+03  2.833E+00  4.107E+01  4.185E+00 -8.764E-02
   1   13    3     8     4    1.5280E+02 -2.8854E+00   1.5569E+02  0.000E+00  0.000E+00  0.000E+00  1.00597E+03  2.846E+00  4.127E+01  4.206E+00 -2.287E-01
   1   13    2     8     5    1.5569E+02 -2.1896E+00   1.5788E+02  0.000E+00  0.000E+00  0.000E+00  9.99739E+02  2.864E+00  4.153E+01  4.232E+00 -1.725E-01
   1   13    1     8     6    1.5788E+02 -1.7109E+00   1.5959E+02  0.000E+00  0.000E+00  0.000E+00  9.94752E+02  2.877E+00  4.172E+01  2.551E+00 -2.236E-01
   1    6    8     9     1    0.0000E+00  0.0000E+00   0.0000E+00  0.000E+00  0.000E+00  0.000E+00  1.07850E+03  0.000E+00  4.000E+00  0.000E+00  1.000E+00



 UBDSV3 SAVING "     NETRECHARGE" ON UNIT 100 AT TIME STEP     1, STRESS PERIOD   1
 UBDSV3 SAVING "    NETDISCHARGE" ON UNIT 101 AT TIME STEP     1, STRESS PERIOD   1
 UBDSV3 SAVING "           GW ET" ON UNIT  61 AT TIME STEP     1, STRESS PERIOD   1
 UBDSV3 SAVING "    UZF RECHARGE" ON UNIT  61 AT TIME STEP     1, STRESS PERIOD   1
 UBDSV3 SAVING " SURFACE LEAKAGE" ON UNIT  61 AT TIME STEP     1, STRESS PERIOD   1
 UBDSV3 SAVING "       HORT+DUNN" ON UNIT  61 AT TIME STEP     1, STRESS PERIOD   1
 UBDSV3 SAVING "  STORAGE CHANGE" ON UNIT  61 AT TIME STEP     1, STRESS PERIOD   1


UNSATURATED ZONE PACKAGE VOLUMETRIC BUDGET FOR  TIME STEP     1 STRESS PERIOD    1
  ------------------------------------------------------------------------------



     CUMULATIVE VOLUMES      L**3       RATES FOR THIS TIME STEP      L**3/T
     ------------------                 ------------------------

           IN:                                      IN:
           ---                                      ---
        INFILTRATION =     2227230.0000          INFILTRATION =           0.8475

          OUT:                                     OUT:
          ----                                     ----
              UZF ET =       0.0000E+00                UZF ET =       0.0000E+00
        UZF RECHARGE =     2227230.0000          UZF RECHARGE =           0.8475

            IN - OUT =       0.0000E+00              IN - OUT =       0.0000E+00

          STORAGE:                                 STORAGE:
          --------                                 --------
      STORAGE CHANGE =       0.0000E+00        STORAGE CHANGE =       0.0000E+00

 PERCENT DISCREPANCY IS DIFFERENCE BETWEEN IN-OUT MINUS CHANGE IN STORAGE
 DIVIDED BY THE AVERAGE OF IN AND OUT TIMES 100

 PERCENT DISCREPANCY =           0.00     PERCENT DISCREPANCY =           0.00






1
  VOLUMETRIC BUDGET FOR ENTIRE MODEL AT END OF TIME STEP    1, STRESS PERIOD   1
  ------------------------------------------------------------------------------

     CUMULATIVE VOLUMES      L**3       RATES FOR THIS TIME STEP      L**3/T
     ------------------                 ------------------------

           IN:                                      IN:
           ---                                      ---
             STORAGE =           0.0000               STORAGE =           0.0000
       CONSTANT HEAD =           0.0000         CONSTANT HEAD =           0.0000
               WELLS =           0.0000                 WELLS =           0.0000
     HEAD DEP BOUNDS =      772165.4375       HEAD DEP BOUNDS =           0.2938
      STREAM LEAKAGE =    21808496.0000        STREAM LEAKAGE =           8.2985
        UZF RECHARGE =     2227228.7500          UZF RECHARGE =           0.8475
               GW ET =           0.0000                 GW ET =           0.0000
     SURFACE LEAKAGE =           0.0000       SURFACE LEAKAGE =           0.0000

            TOTAL IN =    24807890.0000              TOTAL IN =           9.4398

          OUT:                                     OUT:
          ----                                     ----
             STORAGE =           0.0000               STORAGE =           0.0000
       CONSTANT HEAD =           0.0000         CONSTANT HEAD =           0.0000
               WELLS =           0.0000                 WELLS =           0.0000
     HEAD DEP BOUNDS =      741285.6875       HEAD DEP BOUNDS =           0.2821
      STREAM LEAKAGE =    20725436.0000        STREAM LEAKAGE =           7.8864
        UZF RECHARGE =           0.0000          UZF RECHARGE =           0.0000
               GW ET =     3341159.7500                 GW ET =           1.2714
     SURFACE LEAKAGE =           0.0000       SURFACE LEAKAGE =           0.0000

           TOTAL OUT =    24807882.0000             TOTAL OUT =           9.4398

            IN - OUT =           8.0000              IN - OUT =       2.8610E-06

 PERCENT DISCREPANCY =           0.00     PERCENT DISCREPANCY =           0.00






         TIME SUMMARY AT END OF TIME STEP    1 IN STRESS PERIOD    1
                    SECONDS     MINUTES      HOURS       DAYS        YEARS
                    -----------------------------------------------------------
   TIME STEP LENGTH 2.62800E+06  43800.      730.00      30.417     8.32763E-02
 STRESS PERIOD TIME 2.62800E+06  43800.      730.00      30.417     8.32763E-02
         TOTAL TIME 2.62800E+06  43800.      730.00      30.417     8.32763E-02
1
1
                            STRESS PERIOD NO.    2, LENGTH =   2628000.    
                            -----------------------------------------------

                              NUMBER OF TIME STEPS =    30

                               MULTIPLIER FOR DELT =     1.000

                            INITIAL TIME STEP SIZE =   87600.00    

 WELL NO.  LAYER   ROW   COL   STRESS RATE         
 --------------------------------------------------
      1      1      6      4       0.000    
      2      1      6      7       0.000    
      3      1      7      4       0.000    
      4      1      7      5       0.000    
      5      1      8      4       0.000    
      6      1      8      5       0.000    
      7      1      9      4       0.000    
      8      1      9      5       0.000    
      9      1     10      4       0.000    
     10      1     10      5       0.000    

     10 WELLS

 REUSING NON-PARAMETER GHB CELLS FROM LAST STRESS PERIOD

      2 GHB CELLS

 REUSING STREAM SEGMENT DATA FROM LAST STRESS PERIOD



            AREAL INFILTRATION RATE
 READING ON UNIT   19 WITH FORMAT: (10F4.0)            

            1           2           3           4           5           6           7           8           9          10
 ........................................................................................................................
   1   1.0000E-10  2.0000E-10   0.000       0.000       0.000       0.000       0.000       0.000       0.000       0.000    
   2   2.0000E-10  1.0000E-10  2.0000E-10   0.000       0.000      8.0000E-10  8.0000E-10  5.0000E-10   0.000       0.000    
   3    0.000      5.0000E-10  1.0000E-10  1.0000E-10  8.0000E-10  8.0000E-10  5.0000E-10  5.0000E-10   0.000       0.000    
   4   8.0000E-10  5.0000E-10  1.0000E-10  1.0000E-10  1.0000E-10  1.0000E-10  1.0000E-10  1.0000E-10  2.0000E-10   0.000    
   5   8.0000E-10  5.0000E-10  1.0000E-10  1.0000E-10  1.0000E-10  1.0000E-10  1.0000E-10  1.0000E-10  1.0000E-10  1.0000E-10
   6   8.0000E-10  5.0000E-10  5.0000E-10  2.0000E-10  2.0000E-10  1.0000E-10  1.0000E-10  1.0000E-10  1.0000E-10  5.0000E-10
   7   8.0000E-10  5.0000E-10  5.0000E-10  2.0000E-10  2.0000E-10  1.0000E-10  1.0000E-10  2.0000E-10  2.0000E-10   0.000    
   8    0.000      5.0000E-10  5.0000E-10  2.0000E-10  2.0000E-10  1.0000E-10  1.0000E-10  2.0000E-10  5.0000E-10   0.000    
   9    0.000      5.0000E-10  5.0000E-10  2.0000E-10  2.0000E-10  1.0000E-10  1.0000E-10  2.0000E-10  5.0000E-10   0.000    
  10    0.000      5.0000E-10  5.0000E-10  2.0000E-10  2.0000E-10  1.0000E-10  1.0000E-10  2.0000E-10  5.0000E-10  8.0000E-10
  11    0.000      1.0000E-10  1.0000E-10  1.0000E-10  1.0000E-10  1.0000E-10  1.0000E-10  2.0000E-10  5.0000E-10   0.000    
  12   1.0000E-10  1.0000E-10  1.0000E-10  1.0000E-10  1.0000E-10  1.0000E-10  1.0000E-10  1.0000E-10  2.0000E-10   0.000    
  13   1.0000E-10  1.0000E-10  2.0000E-10  2.0000E-10  2.0000E-10  2.0000E-10  2.0000E-10  1.0000E-10  1.0000E-10   0.000    
  14    0.000      2.0000E-10  5.0000E-10  5.0000E-10  5.0000E-10  5.0000E-10  5.0000E-10  2.0000E-10  1.0000E-10   0.000    
  15    0.000       0.000      8.0000E-10  8.0000E-10  8.0000E-10  8.0000E-10   0.000       0.000       0.000       0.000    

                  ET RATE =  1.000000E-10

 USING ET EXTINCTION DEPTH FROM PREVIOUS STRESS PERIOD. CURRENT PERIOD IS:       2

 USING EXTINCTION WATER CONTENT FROM PREVIOUS STRESS PERIOD. CURRENT PERIOD IS:       2
 
 SOLVING FOR HEAD 
                                                   Max.-Head-Change                         Max.-Flux-Residual
  Residual-Control   Outer-Iter.   Inner-Iter.     Column Row Layer    Maximum-Head-Change  Column Row Layer    Maximum-Flux-Residual          L2-NORM 
          0                 1           2             4   13     1       0.1566296947E-01       4   13    1         0.8912245089E+00      0.2519858115E+01
          0                 2           2             5    3     1       0.6900418418E-02       5    3    1         0.1822115491E+00      0.6722141467E+00
          0                 3           2             5    3     1       0.3035615555E-02       5    3    1         0.8024364975E-01      0.2610223160E+00
          0                 4           2             5    3     1       0.1334707211E-02       5    3    1         0.3529208400E-01      0.1138219033E+00
          0                 5           2             5    3     1       0.5867674143E-03       5    3    1         0.1551626960E-01      0.5061355253E-01
          0                 6           2             5    3     1       0.2579524759E-03       5    3    1         0.6821185560E-02      0.2257219701E-01
          0                 7           2             5    3     1       0.1134031629E-03       5    3    1         0.2998703358E-02      0.1007159773E-01
          0                 8           1             6    3     1       0.5002668128E-04       5    3    1         0.1318322031E-02      0.4494601721E-02
          0                 9           1             6    3     1       0.2225867094E-04       6    3    1         0.5828563203E-03      0.2006131042E-02
          0                10           1             6    3     1       0.9903413879E-05       6    3    1         0.2593323942E-03      0.8955686071E-03

    ------------------------------------------------
       NWT REQUIRED           10 OUTER ITERATIONS 
       AND A TOTAL OF         17 INNER ITERATIONS.
    ------------------------------------------------

 OUTPUT CONTROL FOR STRESS PERIOD    2   TIME STEP    1
    PRINT BUDGET
    SAVE BUDGET
 UBUDSV SAVING "         STORAGE" ON UNIT102 AT TIME STEP     1, STRESS PERIOD    2
 UBUDSV SAVING "   CONSTANT HEAD" ON UNIT102 AT TIME STEP     1, STRESS PERIOD    2
 UBUDSV SAVING "FLOW RIGHT FACE " ON UNIT102 AT TIME STEP     1, STRESS PERIOD    2
 UBUDSV SAVING "FLOW FRONT FACE " ON UNIT102 AT TIME STEP     1, STRESS PERIOD    2

  HEAD DEP BOUNDS   PERIOD    2   STEP     1
 BOUNDARY      1   LAYER   1   ROW    13   COL     1   RATE   -0.282605    
 BOUNDARY      2   LAYER   1   ROW    14   COL     9   RATE    0.293693    



 STREAM LISTING     PERIOD      2   STEP        1

 LAYER ROW COL. STREAM  RCH.  FLOW INTO     FLOW TO   FLOW OUT OF   OVRLND.     DIRECT     STREAM       STREAM     STREAM     STREAM   STREAMBED  STREAMBED
                SEG.NO.  NO.  STRM. RCH.    AQUIFER    STRM. RCH.    RUNOFF     PRECIP       ET          HEAD       DEPTH      WIDTH   CONDCTNC.   GRADIENT

   1    1    1     1     1    2.1498E+01  2.2840E-01   2.1269E+01  0.000E+00  0.000E+00  0.000E+00  1.09417E+03  1.123E+00  1.231E+01  5.539E-02  1.374E+00
   1    2    2     1     2    2.1269E+01  3.5303E-01   2.0916E+01  0.000E+00  0.000E+00  0.000E+00  1.08918E+03  1.119E+00  1.225E+01  8.572E-02  1.373E+00
   1    3    3     1     3    2.0916E+01  3.0041E-01   2.0616E+01  0.000E+00  0.000E+00  0.000E+00  1.08353E+03  1.113E+00  1.217E+01  7.304E-02  1.371E+00
   1    3    4     1     4    2.0616E+01  2.7607E-01   2.0340E+01  0.000E+00  0.000E+00  0.000E+00  1.07852E+03  1.108E+00  1.211E+01  6.720E-02  1.369E+00
   1    4    5     2     1    1.8340E+01  3.1221E-11   1.8340E+01  0.000E+00  0.000E+00  0.000E+00  1.07294E+03  1.003E+00  1.200E+01  7.800E-12  1.334E+00
   1    5    6     2     2    1.8340E+01  2.4016E-11   1.8340E+01  0.000E+00  0.000E+00  0.000E+00  1.06751E+03  1.003E+00  1.200E+01  6.000E-12  1.334E+00
   1    6    6     2     3    1.8340E+01  2.4016E-11   1.8340E+01  0.000E+00  0.000E+00  0.000E+00  1.06280E+03  1.003E+00  1.200E+01  6.000E-12  1.334E+00
   1    7    6     2     4    1.8340E+01  2.4016E-11   1.8340E+01  0.000E+00  0.000E+00  0.000E+00  1.05808E+03  1.003E+00  1.200E+01  6.000E-12  1.334E+00
   1    8    6     2     5    1.8340E+01  2.4016E-11   1.8340E+01  0.000E+00  0.000E+00  0.000E+00  1.05336E+03  1.003E+00  1.200E+01  6.000E-12  1.334E+00
   1    3    5     3     1    2.0000E+00  2.8252E-01   1.7175E+00  0.000E+00  0.000E+00  0.000E+00  1.07555E+03  1.909E+00  9.636E+00  7.227E-02  1.955E+00
   1    3    6     3     2    1.7175E+00  2.4905E-01   1.4684E+00  0.000E+00  0.000E+00  0.000E+00  1.07264E+03  1.727E+00  8.909E+00  6.682E-02  1.864E+00
   1    3    7     3     3    1.4684E+00  1.9718E-01   1.2712E+00  0.000E+00  0.000E+00  0.000E+00  1.06987E+03  1.555E+00  8.218E+00  5.547E-02  1.777E+00
   1    4    8     3     4    1.2712E+00  2.2567E-01   1.0456E+00  0.000E+00  0.000E+00  0.000E+00  1.06682E+03  1.364E+00  7.455E+00  6.709E-02  1.682E+00
   1    5    8     3     5    1.0456E+00  1.5790E-01   8.8768E-01  0.000E+00  0.000E+00  0.000E+00  1.06362E+03  1.164E+00  6.655E+00  4.991E-02  1.582E+00
   1    6    8     3     6    8.8768E-01  5.5980E-02   8.3170E-01  0.000E+00  0.000E+00  0.000E+00  1.06158E+03  1.036E+00  6.145E+00  1.844E-02  1.518E+00
   1    5   10     4     1    1.0000E+01  9.0963E-20   1.0000E+01  0.000E+00  0.000E+00  0.000E+00  1.07837E+03  6.385E-01  1.000E+01  2.500E-20  1.213E+00
   1    5    9     4     2    1.0000E+01  1.8193E-19   1.0000E+01  0.000E+00  0.000E+00  0.000E+00  1.07155E+03  6.385E-01  1.000E+01  5.000E-20  1.213E+00
   1    6    8     4     3    1.0000E+01  1.2735E-19   1.0000E+01  0.000E+00  0.000E+00  0.000E+00  1.06382E+03  6.385E-01  1.000E+01  3.500E-20  1.213E+00
   1    6    8     5     1    1.0832E+01  2.3262E-01   1.0599E+01  0.000E+00  0.000E+00  0.000E+00  1.05869E+03  6.881E-01  1.577E+01  6.307E-02  1.229E+00
   1    7    7     5     2    1.0599E+01  2.8607E-01   1.0313E+01  0.000E+00  0.000E+00  0.000E+00  1.05418E+03  6.822E-01  1.554E+01  7.769E-02  1.227E+00
   1    8    7     5     3    1.0313E+01  1.9716E-01   1.0116E+01  0.000E+00  0.000E+00  0.000E+00  1.04993E+03  6.766E-01  1.532E+01  5.363E-02  1.226E+00
   1    8    6     5     4    1.0116E+01  1.3929E-01   9.9766E+00  0.000E+00  0.000E+00  0.000E+00  1.04692E+03  6.727E-01  1.517E+01  3.792E-02  1.224E+00
   1    9    6     6     1    2.8316E+01  2.5895E-19   2.8316E+01  0.000E+00  0.000E+00  0.000E+00  1.04404E+03  1.316E+00  1.200E+01  6.000E-20  1.439E+00
   1   10    7     6     2    2.8316E+01  2.5895E-19   2.8316E+01  0.000E+00  0.000E+00  0.000E+00  1.03950E+03  1.316E+00  1.200E+01  6.000E-20  1.439E+00
   1   11    7     6     3    2.8316E+01  2.5895E-19   2.8316E+01  0.000E+00  0.000E+00  0.000E+00  1.03495E+03  1.316E+00  1.200E+01  6.000E-20  1.439E+00
   1   12    7     6     4    2.8316E+01  2.5895E-19   2.8316E+01  0.000E+00  0.000E+00  0.000E+00  1.03041E+03  1.316E+00  1.200E+01  6.000E-20  1.439E+00
   1   13    7     6     5    2.8316E+01  2.6828E-18   2.8316E+01  0.000E+00  0.000E+00  0.000E+00  1.02722E+03  1.316E+00  1.200E+01  2.400E-18  3.726E-01
   1   14    9     7     1    1.5000E+02  1.4524E+00   1.4855E+02  0.000E+00  0.000E+00  0.000E+00  1.03987E+03  2.287E+00  5.529E+01  5.593E-01  8.656E-01
   1   13    8     7     2    1.4855E+02  2.1675E+00   1.4638E+02  0.000E+00  0.000E+00  0.000E+00  1.03478E+03  2.278E+00  5.525E+01  6.147E-01  1.175E+00
   1   13    7     7     3    1.4638E+02  1.9980E+00   1.4438E+02  0.000E+00  0.000E+00  0.000E+00  1.02969E+03  2.267E+00  5.520E+01  5.583E-01  1.193E+00
   1   13    6     8     1    1.7270E+02  1.4211E+00   1.7128E+02  0.000E+00  0.000E+00  0.000E+00  1.02484E+03  2.965E+00  4.299E+01  4.381E-01  1.081E+00
   1   13    5     8     2    1.7128E+02  6.3161E-01   1.7065E+02  0.000E+00  0.000E+00  0.000E+00  1.01858E+03  2.958E+00  4.290E+01  4.371E-01  4.816E-01
   1   13    4     8     3    1.7065E+02 -6.7978E-01   1.7133E+02  0.000E+00  0.000E+00  0.000E+00  1.01233E+03  2.959E+00  4.290E+01  4.372E+00 -5.183E-02
   1   13    3     8     4    1.7133E+02 -2.5462E+00   1.7387E+02  0.000E+00  0.000E+00  0.000E+00  1.00609E+03  2.969E+00  4.305E+01  4.387E+00 -1.935E-01
   1   13    2     8     5    1.7387E+02 -1.8327E+00   1.7570E+02  0.000E+00  0.000E+00  0.000E+00  9.99858E+02  2.983E+00  4.326E+01  4.408E+00 -1.386E-01
   1   13    1     8     6    1.7570E+02 -1.5081E+00   1.7721E+02  0.000E+00  0.000E+00  0.000E+00  9.94869E+02  2.994E+00  4.341E+01  2.654E+00 -1.894E-01
   1    6    8     9     1    0.0000E+00  0.0000E+00   0.0000E+00  0.000E+00  0.000E+00  0.000E+00  1.07850E+03  0.000E+00  4.000E+00  0.000E+00  1.000E+00



 UBDSV3 SAVING "     NETRECHARGE" ON UNIT 100 AT TIME STEP     1, STRESS PERIOD   2
 UBDSV3 SAVING "    NETDISCHARGE" ON UNIT 101 AT TIME STEP     1, STRESS PERIOD   2
 UBDSV3 SAVING "           GW ET" ON UNIT  61 AT TIME STEP     1, STRESS PERIOD   2
 UBDSV3 SAVING "    UZF RECHARGE" ON UNIT  61 AT TIME STEP     1, STRESS PERIOD   2
 UBDSV3 SAVING " SURFACE LEAKAGE" ON UNIT  61 AT TIME STEP     1, STRESS PERIOD   2
 UBDSV3 SAVING "       HORT+DUNN" ON UNIT  61 AT TIME STEP     1, STRESS PERIOD   2
 UBDSV3 SAVING "  STORAGE CHANGE" ON UNIT  61 AT TIME STEP     1, STRESS PERIOD   2


UNSATURATED ZONE PACKAGE VOLUMETRIC BUDGET FOR  TIME STEP     1 STRESS PERIOD    2
  ------------------------------------------------------------------------------



     CUMULATIVE VOLUMES      L**3       RATES FOR THIS TIME STEP      L**3/T
     ------------------                 ------------------------

           IN:                                      IN:
           ---                                      ---
        INFILTRATION =     2301471.0000          INFILTRATION =           0.8475

          OUT:                                     OUT:
          ----                                     ----
              UZF ET =       25401.2450                UZF ET =           0.2900
        UZF RECHARGE =     4899214.2227          UZF RECHARGE =          30.5021

            IN - OUT =    -2623144.4676              IN - OUT =         -29.9446

          STORAGE:                                 STORAGE:
          --------                                 --------
      STORAGE CHANGE =    -2622511.0766        STORAGE CHANGE =         -29.9373

 PERCENT DISCREPANCY IS DIFFERENCE BETWEEN IN-OUT MINUS CHANGE IN STORAGE
 DIVIDED BY THE AVERAGE OF IN AND OUT TIMES 100

 PERCENT DISCREPANCY =          -0.00     PERCENT DISCREPANCY =          -0.02






1
  VOLUMETRIC BUDGET FOR ENTIRE MODEL AT END OF TIME STEP    1, STRESS PERIOD   2
  ------------------------------------------------------------------------------

     CUMULATIVE VOLUMES      L**3       RATES FOR THIS TIME STEP      L**3/T
     ------------------                 ------------------------

           IN:                                      IN:
           ---                                      ---
             STORAGE =           0.0000               STORAGE =           0.0000
       CONSTANT HEAD =           0.0000         CONSTANT HEAD =           0.0000
               WELLS =           0.0000                 WELLS =           0.0000
     HEAD DEP BOUNDS =      797893.0000       HEAD DEP BOUNDS =           0.2937
      STREAM LEAKAGE =    22759132.0000        STREAM LEAKAGE =          10.8520
        UZF RECHARGE =     4899213.5000          UZF RECHARGE =          30.5021
               GW ET =           0.0000                 GW ET =           0.0000
     SURFACE LEAKAGE =           0.0000       SURFACE LEAKAGE =           0.0000

            TOTAL IN =    28456238.0000              TOTAL IN =          41.6478

          OUT:                                     OUT:
          ----                                     ----
             STORAGE =     3048089.7500               STORAGE =          34.7955
       CONSTANT HEAD =           0.0000         CONSTANT HEAD =           0.0000
               WELLS =           0.0000                 WELLS =           0.0000
     HEAD DEP BOUNDS =      766041.8750       HEAD DEP BOUNDS =           0.2826
      STREAM LEAKAGE =    21300682.0000        STREAM LEAKAGE =           6.5667
        UZF RECHARGE =           0.0000          UZF RECHARGE =           0.0000
               GW ET =     3341160.0000                 GW ET =       1.4637E-06
     SURFACE LEAKAGE =           0.0000       SURFACE LEAKAGE =           0.0000

           TOTAL OUT =    28455974.0000             TOTAL OUT =          41.6449

            IN - OUT =         264.0000              IN - OUT =       2.9182E-03

 PERCENT DISCREPANCY =           0.00     PERCENT DISCREPANCY =           0.01






         TIME SUMMARY AT END OF TIME STEP    1 IN STRESS PERIOD    2
                    SECONDS     MINUTES      HOURS       DAYS        YEARS
                    -----------------------------------------------------------
   TIME STEP LENGTH  87600.      1460.0      24.333      1.0139     2.77588E-03
 STRESS PERIOD TIME  87600.      1460.0      24.333      1.0139     2.77588E-03
         TOTAL TIME 2.71560E+06  45260.      754.33      31.431     8.60522E-02
1
 
 SOLVING FOR HEAD 
                                                   Max.-Head-Change                         Max.-Flux-Residual
  Residual-Control   Outer-Iter.   Inner-Iter.     Column Row Layer    Maximum-Head-Change  Column Row Layer    Maximum-Flux-Residual          L2-NORM 
          0                 1           2             5    3     1       0.1528001448E-01       4   13    1         0.8087532908E+00      0.2437197328E+01
          0                 2           2             5    3     1       0.6739237452E-02       5    3    1         0.1778484688E+00      0.6629962493E+00
          0                 3           2             5    3     1       0.2966240968E-02       5    3    1         0.7838000671E-01      0.2590124987E+00
          0                 4           2             5    3     1       0.1304570262E-02       5    3    1         0.3448848400E-01      0.1130780449E+00
          0                 5           2             5    3     1       0.5736023135E-03       5    3    1         0.1516659236E-01      0.5029514422E-01
          0                 6           2             5    3     1       0.2521863593E-03       5    3    1         0.6668304857E-02      0.2243278183E-01
          0                 7           2             6    3     1       0.1111329005E-03       5    3    1         0.2931719100E-02      0.1001037793E-01
          0                 8           1             6    3     1       0.4944751151E-04       6    3    1         0.1294802084E-02      0.4467709741E-02
          0                 9           1             6    3     1       0.2200056735E-04       6    3    1         0.5761064300E-03      0.1994183993E-02
          0                10           1             6    3     1       0.9788402942E-05       6    3    1         0.2563243957E-03      0.8902005177E-03

    ------------------------------------------------
       NWT REQUIRED           10 OUTER ITERATIONS 
       AND A TOTAL OF         17 INNER ITERATIONS.
    ------------------------------------------------

 OUTPUT CONTROL WAS SPECIFIED FOR A NONEXISTENT TIME STEP
 OR OUTPUT CONTROL DATA ARE NOT ENTERED IN ASCENDING ORDER
 OUTPUT CONTROL STRESS PERIOD    1   TIME STEP    5
 MODEL STRESS PERIOD    2   TIME STEP    2
 APPLYING THE SPECIFIED OUTPUT CONTROL TO THE CURRENT TIME STEP

 OUTPUT CONTROL FOR STRESS PERIOD    2   TIME STEP    2
    PRINT BUDGET
    SAVE BUDGET
 UBUDSV SAVING "         STORAGE" ON UNIT102 AT TIME STEP     2, STRESS PERIOD    2
 UBUDSV SAVING "   CONSTANT HEAD" ON UNIT102 AT TIME STEP     2, STRESS PERIOD    2
 UBUDSV SAVING "FLOW RIGHT FACE " ON UNIT102 AT TIME STEP     2, STRESS PERIOD    2
 UBUDSV SAVING "FLOW FRONT FACE " ON UNIT102 AT TIME STEP     2, STRESS PERIOD    2

  HEAD DEP BOUNDS   PERIOD    2   STEP     2
 BOUNDARY      1   LAYER   1   ROW    13   COL     1   RATE   -0.283114    
 BOUNDARY      2   LAYER   1   ROW    14   COL     9   RATE    0.293566    



 STREAM LISTING     PERIOD      2   STEP        2

 LAYER ROW COL. STREAM  RCH.  FLOW INTO     FLOW TO   FLOW OUT OF   OVRLND.     DIRECT     STREAM       STREAM     STREAM     STREAM   STREAMBED  STREAMBED
                SEG.NO.  NO.  STRM. RCH.    AQUIFER    STRM. RCH.    RUNOFF     PRECIP       ET          HEAD       DEPTH      WIDTH   CONDCTNC.   GRADIENT

   1    1    1     1     1    2.2000E+01  2.3088E-01   2.1769E+01  0.000E+00  0.000E+00  0.000E+00  1.09418E+03  1.132E+00  1.242E+01  5.588E-02  1.377E+00
   1    2    2     1     2    2.1769E+01  3.5689E-01   2.1412E+01  0.000E+00  0.000E+00  0.000E+00  1.08919E+03  1.127E+00  1.235E+01  8.648E-02  1.376E+00
   1    3    3     1     3    2.1412E+01  3.0372E-01   2.1109E+01  0.000E+00  0.000E+00  0.000E+00  1.08354E+03  1.121E+00  1.228E+01  7.369E-02  1.374E+00
   1    3    4     1     4    2.1109E+01  2.7914E-01   2.0829E+01  0.000E+00  0.000E+00  0.000E+00  1.07852E+03  1.117E+00  1.222E+01  6.781E-02  1.372E+00
   1    4    5     2     1    1.8829E+01  3.1346E-21   1.8829E+01  0.000E+00  0.000E+00  0.000E+00  1.07295E+03  1.019E+00  1.200E+01  7.800E-22  1.340E+00
   1    5    6     2     2    1.8829E+01  2.4112E-21   1.8829E+01  0.000E+00  0.000E+00  0.000E+00  1.06753E+03  1.019E+00  1.200E+01  6.000E-22  1.340E+00
   1    6    6     2     3    1.8829E+01  2.4112E-21   1.8829E+01  0.000E+00  0.000E+00  0.000E+00  1.06281E+03  1.019E+00  1.200E+01  6.000E-22  1.340E+00
   1    7    6     2     4    1.8829E+01  2.4112E-21   1.8829E+01  0.000E+00  0.000E+00  0.000E+00  1.05809E+03  1.019E+00  1.200E+01  6.000E-22  1.340E+00
   1    8    6     2     5    1.8829E+01  2.4112E-21   1.8829E+01  0.000E+00  0.000E+00  0.000E+00  1.05338E+03  1.019E+00  1.200E+01  6.000E-22  1.340E+00
   1    3    5     3     1    2.0000E+00  2.8252E-01   1.7175E+00  0.000E+00  0.000E+00  0.000E+00  1.07555E+03  1.909E+00  9.636E+00  7.227E-02  1.955E+00
   1    3    6     3     2    1.7175E+00  2.4905E-01   1.4684E+00  0.000E+00  0.000E+00  0.000E+00  1.07264E+03  1.727E+00  8.909E+00  6.682E-02  1.864E+00
   1    3    7     3     3    1.4684E+00  1.9718E-01   1.2712E+00  0.000E+00  0.000E+00  0.000E+00  1.06987E+03  1.555E+00  8.218E+00  5.547E-02  1.777E+00
   1    4    8     3     4    1.2712E+00  2.2567E-01   1.0456E+00  0.000E+00  0.000E+00  0.000E+00  1.06682E+03  1.364E+00  7.455E+00  6.709E-02  1.682E+00
   1    5    8     3     5    1.0456E+00  1.5790E-01   8.8768E-01  0.000E+00  0.000E+00  0.000E+00  1.06362E+03  1.164E+00  6.655E+00  4.991E-02  1.582E+00
   1    6    8     3     6    8.8768E-01  5.5980E-02   8.3170E-01  0.000E+00  0.000E+00  0.000E+00  1.06158E+03  1.036E+00  6.145E+00  1.844E-02  1.518E+00
   1    5   10     4     1    1.0000E+01  9.0963E-30   1.0000E+01  0.000E+00  0.000E+00  0.000E+00  1.07837E+03  6.385E-01  1.000E+01  2.500E-30  1.213E+00
   1    5    9     4     2    1.0000E+01  1.8193E-29   1.0000E+01  0.000E+00  0.000E+00  0.000E+00  1.07155E+03  6.385E-01  1.000E+01  5.000E-30  1.213E+00
   1    6    8     4     3    1.0000E+01  1.2735E-29   1.0000E+01  0.000E+00  0.000E+00  0.000E+00  1.06382E+03  6.385E-01  1.000E+01  3.500E-30  1.213E+00
   1    6    8     5     1    1.0832E+01  2.3262E-01   1.0599E+01  0.000E+00  0.000E+00  0.000E+00  1.05869E+03  6.881E-01  1.577E+01  6.307E-02  1.229E+00
   1    7    7     5     2    1.0599E+01  2.8607E-01   1.0313E+01  0.000E+00  0.000E+00  0.000E+00  1.05418E+03  6.822E-01  1.554E+01  7.769E-02  1.227E+00
   1    8    7     5     3    1.0313E+01  1.9716E-01   1.0116E+01  0.000E+00  0.000E+00  0.000E+00  1.04993E+03  6.766E-01  1.532E+01  5.363E-02  1.226E+00
   1    8    6     5     4    1.0116E+01  1.3929E-01   9.9766E+00  0.000E+00  0.000E+00  0.000E+00  1.04692E+03  6.727E-01  1.517E+01  3.792E-02  1.224E+00
   1    9    6     6     1    2.8806E+01  2.5976E-29   2.8806E+01  0.000E+00  0.000E+00  0.000E+00  1.04406E+03  1.329E+00  1.200E+01  6.000E-30  1.443E+00
   1   10    7     6     2    2.8806E+01  2.5976E-29   2.8806E+01  0.000E+00  0.000E+00  0.000E+00  1.03951E+03  1.329E+00  1.200E+01  6.000E-30  1.443E+00
   1   11    7     6     3    2.8806E+01  2.5976E-29   2.8806E+01  0.000E+00  0.000E+00  0.000E+00  1.03497E+03  1.329E+00  1.200E+01  6.000E-30  1.443E+00
   1   12    7     6     4    2.8806E+01  2.5976E-29   2.8806E+01  0.000E+00  0.000E+00  0.000E+00  1.03042E+03  1.329E+00  1.200E+01  6.000E-30  1.443E+00
   1   13    7     6     5    2.8806E+01  2.7073E-28   2.8806E+01  0.000E+00  0.000E+00  0.000E+00  1.02724E+03  1.329E+00  1.200E+01  2.400E-28  3.760E-01
   1   14    9     7     1    1.5000E+02  1.4505E+00   1.4855E+02  0.000E+00  0.000E+00  0.000E+00  1.03987E+03  2.287E+00  5.529E+01  5.593E-01  8.645E-01
   1   13    8     7     2    1.4855E+02  2.1655E+00   1.4638E+02  0.000E+00  0.000E+00  0.000E+00  1.03478E+03  2.278E+00  5.525E+01  6.147E-01  1.174E+00
   1   13    7     7     3    1.4638E+02  1.9961E+00   1.4439E+02  0.000E+00  0.000E+00  0.000E+00  1.02969E+03  2.267E+00  5.520E+01  5.583E-01  1.192E+00
   1   13    6     8     1    1.7319E+02  1.4212E+00   1.7177E+02  0.000E+00  0.000E+00  0.000E+00  1.02484E+03  2.968E+00  4.304E+01  4.386E-01  1.080E+00
   1   13    5     8     2    1.7177E+02  6.2902E-01   1.7114E+02  0.000E+00  0.000E+00  0.000E+00  1.01859E+03  2.962E+00  4.294E+01  4.376E-01  4.791E-01
   1   13    4     8     3    1.7114E+02 -7.3913E-01   1.7188E+02  0.000E+00  0.000E+00  0.000E+00  1.01234E+03  2.962E+00  4.295E+01  4.377E+00 -5.629E-02
   1   13    3     8     4    1.7188E+02 -2.6010E+00   1.7448E+02  0.000E+00  0.000E+00  0.000E+00  1.00610E+03  2.973E+00  4.311E+01  4.393E+00 -1.974E-01
   1   13    2     8     5    1.7448E+02 -1.8885E+00   1.7637E+02  0.000E+00  0.000E+00  0.000E+00  9.99862E+02  2.987E+00  4.331E+01  4.414E+00 -1.426E-01
   1   13    1     8     6    1.7637E+02 -1.5344E+00   1.7791E+02  0.000E+00  0.000E+00  0.000E+00  9.94873E+02  2.998E+00  4.347E+01  2.658E+00 -1.924E-01
   1    6    8     9     1    0.0000E+00  0.0000E+00   0.0000E+00  0.000E+00  0.000E+00  0.000E+00  1.07850E+03  0.000E+00  4.000E+00  0.000E+00  1.000E+00



 UBDSV3 SAVING "     NETRECHARGE" ON UNIT 100 AT TIME STEP     2, STRESS PERIOD   2
 UBDSV3 SAVING "    NETDISCHARGE" ON UNIT 101 AT TIME STEP     2, STRESS PERIOD   2
 UBDSV3 SAVING "           GW ET" ON UNIT  61 AT TIME STEP     2, STRESS PERIOD   2
 UBDSV3 SAVING "    UZF RECHARGE" ON UNIT  61 AT TIME STEP     2, STRESS PERIOD   2
 UBDSV3 SAVING " SURFACE LEAKAGE" ON UNIT  61 AT TIME STEP     2, STRESS PERIOD   2
 UBDSV3 SAVING "       HORT+DUNN" ON UNIT  61 AT TIME STEP     2, STRESS PERIOD   2
 UBDSV3 SAVING "  STORAGE CHANGE" ON UNIT  61 AT TIME STEP     2, STRESS PERIOD   2


UNSATURATED ZONE PACKAGE VOLUMETRIC BUDGET FOR  TIME STEP     2 STRESS PERIOD    2
  ------------------------------------------------------------------------------



     CUMULATIVE VOLUMES      L**3       RATES FOR THIS TIME STEP      L**3/T
     ------------------                 ------------------------

           IN:                                      IN:
           ---                                      ---
        INFILTRATION =     2375712.0000          INFILTRATION =           0.8475

          OUT:                                     OUT:
          ----                                     ----
              UZF ET =       50805.2450                UZF ET =           0.2900
        UZF RECHARGE =     7563136.4590          UZF RECHARGE =          30.4101

            IN - OUT =    -5238229.7039              IN - OUT =         -29.8526

          STORAGE:                                 STORAGE:
          --------                                 --------
      STORAGE CHANGE =    -5237579.8030        STORAGE CHANGE =         -29.8524

 PERCENT DISCREPANCY IS DIFFERENCE BETWEEN IN-OUT MINUS CHANGE IN STORAGE
 DIVIDED BY THE AVERAGE OF IN AND OUT TIMES 100

 PERCENT DISCREPANCY =          -0.00     PERCENT DISCREPANCY =          -0.00






1
  VOLUMETRIC BUDGET FOR ENTIRE MODEL AT END OF TIME STEP    2, STRESS PERIOD   2
  ------------------------------------------------------------------------------

     CUMULATIVE VOLUMES      L**3       RATES FOR THIS TIME STEP      L**3/T
     ------------------                 ------------------------

           IN:                                      IN:
           ---                                      ---
             STORAGE =           0.0000               STORAGE =           0.0000
       CONSTANT HEAD =           0.0000         CONSTANT HEAD =           0.0000
               WELLS =           0.0000                 WELLS =           0.0000
     HEAD DEP BOUNDS =      823609.3750       HEAD DEP BOUNDS =           0.2936
      STREAM LEAKAGE =    23710152.0000        STREAM LEAKAGE =          10.8564
        UZF RECHARGE =     7563136.0000          UZF RECHARGE =          30.4101
               GW ET =           0.0000                 GW ET =           0.0000
     SURFACE LEAKAGE =           0.0000       SURFACE LEAKAGE =           0.0000

            TOTAL IN =    32096898.0000              TOTAL IN =          41.5600

          OUT:                                     OUT:
          ----                                     ----
             STORAGE =     6071256.5000               STORAGE =          34.5110
       CONSTANT HEAD =           0.0000         CONSTANT HEAD =           0.0000
               WELLS =           0.0000                 WELLS =           0.0000
     HEAD DEP BOUNDS =      790842.6875       HEAD DEP BOUNDS =           0.2831
      STREAM LEAKAGE =    21893118.0000        STREAM LEAKAGE =           6.7630
        UZF RECHARGE =           0.0000          UZF RECHARGE =           0.0000
               GW ET =     3341160.0000                 GW ET =       2.2158E-10
     SURFACE LEAKAGE =           0.0000       SURFACE LEAKAGE =           0.0000

           TOTAL OUT =    32096376.0000             TOTAL OUT =          41.5571

            IN - OUT =         522.0000              IN - OUT =       2.9030E-03

 PERCENT DISCREPANCY =           0.00     PERCENT DISCREPANCY =           0.01






         TIME SUMMARY AT END OF TIME STEP    2 IN STRESS PERIOD    2
                    SECONDS     MINUTES      HOURS       DAYS        YEARS
                    -----------------------------------------------------------
   TIME STEP LENGTH  87600.      1460.0      24.333      1.0139     2.77588E-03
 STRESS PERIOD TIME 1.75200E+05  2920.0      48.667      2.0278     5.55175E-03
         TOTAL TIME 2.80320E+06  46720.      778.67      32.444     8.88281E-02
1
 
 SOLVING FOR HEAD 
                                                   Max.-Head-Change                         Max.-Flux-Residual
  Residual-Control   Outer-Iter.   Inner-Iter.     Column Row Layer    Maximum-Head-Change  Column Row Layer    Maximum-Flux-Residual          L2-NORM 
          0                 1           2             5    3     1       0.1492364315E-01       4   13    1         0.7205916680E+00      0.2355880701E+01
          0                 2           2             5    3     1       0.6583114525E-02       5    3    1         0.1737093887E+00      0.6529485069E+00
          0                 3           2             5    3     1       0.2897784776E-02       5    3    1         0.7656613665E-01      0.2569892868E+00
          0                 4           2             5    3     1       0.1274542870E-02       5    3    1         0.3369304246E-01      0.1123393713E+00
          0                 5           2             5    3     1       0.5604290414E-03       5    3    1         0.1481766357E-01      0.4997912984E-01
          0                 6           2             6    3     1       0.2468781885E-03       5    3    1         0.6515222982E-02      0.2229443925E-01
          0                 7           1             6    3     1       0.1098470974E-03       6    3    1         0.2876368528E-02      0.9949628732E-02
          0                 8           1             6    3     1       0.4887435304E-04       6    3    1         0.1279816022E-02      0.4441018802E-02
          0                 9           1             6    3     1       0.2174510756E-04       6    3    1         0.5694264022E-03      0.1982456143E-02
          0                10           1             6    3     1       0.9674556772E-05       6    3    1         0.2533471334E-03      0.8850465048E-03

    ------------------------------------------------
       NWT REQUIRED           10 OUTER ITERATIONS 
       AND A TOTAL OF         16 INNER ITERATIONS.
    ------------------------------------------------

 OUTPUT CONTROL WAS SPECIFIED FOR A NONEXISTENT TIME STEP
 OR OUTPUT CONTROL DATA ARE NOT ENTERED IN ASCENDING ORDER
 OUTPUT CONTROL STRESS PERIOD    1   TIME STEP   10
 MODEL STRESS PERIOD    2   TIME STEP    3
 APPLYING THE SPECIFIED OUTPUT CONTROL TO THE CURRENT TIME STEP

 OUTPUT CONTROL FOR STRESS PERIOD    2   TIME STEP    3
    PRINT BUDGET
    SAVE BUDGET
 UBUDSV SAVING "         STORAGE" ON UNIT102 AT TIME STEP     3, STRESS PERIOD    2
 UBUDSV SAVING "   CONSTANT HEAD" ON UNIT102 AT TIME STEP     3, STRESS PERIOD    2
 UBUDSV SAVING "FLOW RIGHT FACE " ON UNIT102 AT TIME STEP     3, STRESS PERIOD    2
 UBUDSV SAVING "FLOW FRONT FACE " ON UNIT102 AT TIME STEP     3, STRESS PERIOD    2

  HEAD DEP BOUNDS   PERIOD    2   STEP     3
 BOUNDARY      1   LAYER   1   ROW    13   COL     1   RATE   -0.283596    
 BOUNDARY      2   LAYER   1   ROW    14   COL     9   RATE    0.293439    



 STREAM LISTING     PERIOD      2   STEP        3

 LAYER ROW COL. STREAM  RCH.  FLOW INTO     FLOW TO   FLOW OUT OF   OVRLND.     DIRECT     STREAM       STREAM     STREAM     STREAM   STREAMBED  STREAMBED
                SEG.NO.  NO.  STRM. RCH.    AQUIFER    STRM. RCH.    RUNOFF     PRECIP       ET          HEAD       DEPTH      WIDTH   CONDCTNC.   GRADIENT

   1    1    1     1     1    2.2000E+01  2.3088E-01   2.1769E+01  0.000E+00  0.000E+00  0.000E+00  1.09418E+03  1.132E+00  1.242E+01  5.588E-02  1.377E+00
   1    2    2     1     2    2.1769E+01  3.5689E-01   2.1412E+01  0.000E+00  0.000E+00  0.000E+00  1.08919E+03  1.127E+00  1.235E+01  8.648E-02  1.376E+00
   1    3    3     1     3    2.1412E+01  3.0372E-01   2.1109E+01  0.000E+00  0.000E+00  0.000E+00  1.08354E+03  1.121E+00  1.228E+01  7.369E-02  1.374E+00
   1    3    4     1     4    2.1109E+01  2.7914E-01   2.0829E+01  0.000E+00  0.000E+00  0.000E+00  1.07852E+03  1.117E+00  1.222E+01  6.781E-02  1.372E+00
   1    4    5     2     1    1.8829E+01  3.1346E-31   1.8829E+01  0.000E+00  0.000E+00  0.000E+00  1.07295E+03  1.019E+00  1.200E+01  7.800E-32  1.340E+00
   1    5    6     2     2    1.8829E+01  2.4112E-31   1.8829E+01  0.000E+00  0.000E+00  0.000E+00  1.06753E+03  1.019E+00  1.200E+01  6.000E-32  1.340E+00
   1    6    6     2     3    1.8829E+01  2.4112E-31   1.8829E+01  0.000E+00  0.000E+00  0.000E+00  1.06281E+03  1.019E+00  1.200E+01  6.000E-32  1.340E+00
   1    7    6     2     4    1.8829E+01  2.4112E-31   1.8829E+01  0.000E+00  0.000E+00  0.000E+00  1.05809E+03  1.019E+00  1.200E+01  6.000E-32  1.340E+00
   1    8    6     2     5    1.8829E+01  2.4112E-31   1.8829E+01  0.000E+00  0.000E+00  0.000E+00  1.05338E+03  1.019E+00  1.200E+01  6.000E-32  1.340E+00
   1    3    5     3     1    2.0000E+00  2.8252E-01   1.7175E+00  0.000E+00  0.000E+00  0.000E+00  1.07555E+03  1.909E+00  9.636E+00  7.227E-02  1.955E+00
   1    3    6     3     2    1.7175E+00  2.4905E-01   1.4684E+00  0.000E+00  0.000E+00  0.000E+00  1.07264E+03  1.727E+00  8.909E+00  6.682E-02  1.864E+00
   1    3    7     3     3    1.4684E+00  1.9718E-01   1.2712E+00  0.000E+00  0.000E+00  0.000E+00  1.06987E+03  1.555E+00  8.218E+00  5.547E-02  1.777E+00
   1    4    8     3     4    1.2712E+00  2.2567E-01   1.0456E+00  0.000E+00  0.000E+00  0.000E+00  1.06682E+03  1.364E+00  7.455E+00  6.709E-02  1.682E+00
   1    5    8     3     5    1.0456E+00  1.5790E-01   8.8768E-01  0.000E+00  0.000E+00  0.000E+00  1.06362E+03  1.164E+00  6.655E+00  4.991E-02  1.582E+00
   1    6    8     3     6    8.8768E-01  5.5980E-02   8.3170E-01  0.000E+00  0.000E+00  0.000E+00  1.06158E+03  1.036E+00  6.145E+00  1.844E-02  1.518E+00
   1    5   10     4     1    1.0000E+01  0.0000E+00   1.0000E+01  0.000E+00  0.000E+00  0.000E+00  1.07837E+03  6.385E-01  1.000E+01  0.000E+00  1.213E+00
   1    5    9     4     2    1.0000E+01  0.0000E+00   1.0000E+01  0.000E+00  0.000E+00  0.000E+00  1.07155E+03  6.385E-01  1.000E+01  0.000E+00  1.213E+00
   1    6    8     4     3    1.0000E+01  0.0000E+00   1.0000E+01  0.000E+00  0.000E+00  0.000E+00  1.06382E+03  6.385E-01  1.000E+01  0.000E+00  1.213E+00
   1    6    8     5     1    1.0832E+01  2.3262E-01   1.0599E+01  0.000E+00  0.000E+00  0.000E+00  1.05869E+03  6.881E-01  1.577E+01  6.307E-02  1.229E+00
   1    7    7     5     2    1.0599E+01  2.8607E-01   1.0313E+01  0.000E+00  0.000E+00  0.000E+00  1.05418E+03  6.822E-01  1.554E+01  7.769E-02  1.227E+00
   1    8    7     5     3    1.0313E+01  1.9716E-01   1.0116E+01  0.000E+00  0.000E+00  0.000E+00  1.04993E+03  6.766E-01  1.532E+01  5.363E-02  1.226E+00
   1    8    6     5     4    1.0116E+01  1.3929E-01   9.9766E+00  0.000E+00  0.000E+00  0.000E+00  1.04692E+03  6.727E-01  1.517E+01  3.792E-02  1.224E+00
   1    9    6     6     1    2.8806E+01  0.0000E+00   2.8806E+01  0.000E+00  0.000E+00  0.000E+00  1.04406E+03  1.329E+00  1.200E+01  0.000E+00  1.443E+00
   1   10    7     6     2    2.8806E+01  0.0000E+00   2.8806E+01  0.000E+00  0.000E+00  0.000E+00  1.03951E+03  1.329E+00  1.200E+01  0.000E+00  1.443E+00
   1   11    7     6     3    2.8806E+01  0.0000E+00   2.8806E+01  0.000E+00  0.000E+00  0.000E+00  1.03497E+03  1.329E+00  1.200E+01  0.000E+00  1.443E+00
   1   12    7     6     4    2.8806E+01  0.0000E+00   2.8806E+01  0.000E+00  0.000E+00  0.000E+00  1.03042E+03  1.329E+00  1.200E+01  0.000E+00  1.443E+00
   1   13    7     6     5    2.8806E+01  2.6991E-38   2.8806E+01  0.000E+00  0.000E+00  0.000E+00  1.02724E+03  1.329E+00  1.200E+01  2.400E-38  3.749E-01
   1   14    9     7     1    1.5000E+02  1.4486E+00   1.4855E+02  0.000E+00  0.000E+00  0.000E+00  1.03987E+03  2.287E+00  5.529E+01  5.593E-01  8.634E-01
   1   13    8     7     2    1.4855E+02  2.1634E+00   1.4639E+02  0.000E+00  0.000E+00  0.000E+00  1.03478E+03  2.278E+00  5.525E+01  6.147E-01  1.173E+00
   1   13    7     7     3    1.4639E+02  1.9942E+00   1.4439E+02  0.000E+00  0.000E+00  0.000E+00  1.02969E+03  2.267E+00  5.520E+01  5.583E-01  1.191E+00
   1   13    6     8     1    1.7320E+02  1.4185E+00   1.7178E+02  0.000E+00  0.000E+00  0.000E+00  1.02484E+03  2.968E+00  4.304E+01  4.386E-01  1.078E+00
   1   13    5     8     2    1.7178E+02  6.2448E-01   1.7116E+02  0.000E+00  0.000E+00  0.000E+00  1.01859E+03  2.962E+00  4.295E+01  4.376E-01  4.757E-01
   1   13    4     8     3    1.7116E+02 -8.0356E-01   1.7196E+02  0.000E+00  0.000E+00  0.000E+00  1.01234E+03  2.962E+00  4.295E+01  4.377E+00 -6.119E-02
   1   13    3     8     4    1.7196E+02 -2.6600E+00   1.7462E+02  0.000E+00  0.000E+00  0.000E+00  1.00610E+03  2.974E+00  4.312E+01  4.394E+00 -2.018E-01
   1   13    2     8     5    1.7462E+02 -1.9494E+00   1.7657E+02  0.000E+00  0.000E+00  0.000E+00  9.99863E+02  2.988E+00  4.333E+01  4.415E+00 -1.472E-01
   1   13    1     8     6    1.7657E+02 -1.5652E+00   1.7813E+02  0.000E+00  0.000E+00  0.000E+00  9.94874E+02  2.999E+00  4.349E+01  2.659E+00 -1.962E-01
   1    6    8     9     1    0.0000E+00  0.0000E+00   0.0000E+00  0.000E+00  0.000E+00  0.000E+00  1.07850E+03  0.000E+00  4.000E+00  0.000E+00  1.000E+00



 UBDSV3 SAVING "     NETRECHARGE" ON UNIT 100 AT TIME STEP     3, STRESS PERIOD   2
 UBDSV3 SAVING "    NETDISCHARGE" ON UNIT 101 AT TIME STEP     3, STRESS PERIOD   2
 UBDSV3 SAVING "           GW ET" ON UNIT  61 AT TIME STEP     3, STRESS PERIOD   2
 UBDSV3 SAVING "    UZF RECHARGE" ON UNIT  61 AT TIME STEP     3, STRESS PERIOD   2
 UBDSV3 SAVING " SURFACE LEAKAGE" ON UNIT  61 AT TIME STEP     3, STRESS PERIOD   2
 UBDSV3 SAVING "       HORT+DUNN" ON UNIT  61 AT TIME STEP     3, STRESS PERIOD   2
 UBDSV3 SAVING "  STORAGE CHANGE" ON UNIT  61 AT TIME STEP     3, STRESS PERIOD   2


UNSATURATED ZONE PACKAGE VOLUMETRIC BUDGET FOR  TIME STEP     3 STRESS PERIOD    2
  ------------------------------------------------------------------------------



     CUMULATIVE VOLUMES      L**3       RATES FOR THIS TIME STEP      L**3/T
     ------------------                 ------------------------

           IN:                                      IN:
           ---                                      ---
        INFILTRATION =     2449953.0000          INFILTRATION =           0.8475

          OUT:                                     OUT:
          ----                                     ----
              UZF ET =       76209.2450                UZF ET =           0.2900
        UZF RECHARGE =    10217953.7207          UZF RECHARGE =          30.3061

            IN - OUT =    -7844209.9657              IN - OUT =         -29.7486

          STORAGE:                                 STORAGE:
          --------                                 --------
      STORAGE CHANGE =    -7843548.7709        STORAGE CHANGE =         -29.7485

 PERCENT DISCREPANCY IS DIFFERENCE BETWEEN IN-OUT MINUS CHANGE IN STORAGE
 DIVIDED BY THE AVERAGE OF IN AND OUT TIMES 100

 PERCENT DISCREPANCY =          -0.00     PERCENT DISCREPANCY =          -0.00






1
  VOLUMETRIC BUDGET FOR ENTIRE MODEL AT END OF TIME STEP    3, STRESS PERIOD   2
  ------------------------------------------------------------------------------

     CUMULATIVE VOLUMES      L**3       RATES FOR THIS TIME STEP      L**3/T
     ------------------                 ------------------------

           IN:                                      IN:
           ---                                      ---
             STORAGE =           0.0000               STORAGE =           0.0000
       CONSTANT HEAD =           0.0000         CONSTANT HEAD =           0.0000
               WELLS =           0.0000                 WELLS =           0.0000
     HEAD DEP BOUNDS =      849314.6250       HEAD DEP BOUNDS =           0.2934
      STREAM LEAKAGE =    24660022.0000        STREAM LEAKAGE =          10.8433
        UZF RECHARGE =    10217954.0000          UZF RECHARGE =          30.3061
               GW ET =           0.0000                 GW ET =           0.0000
     SURFACE LEAKAGE =           0.0000       SURFACE LEAKAGE =           0.0000

            TOTAL IN =    35727288.0000              TOTAL IN =          41.4428

          OUT:                                     OUT:
          ----                                     ----
             STORAGE =     9065264.0000               STORAGE =          34.1782
       CONSTANT HEAD =           0.0000         CONSTANT HEAD =           0.0000
               WELLS =           0.0000                 WELLS =           0.0000
     HEAD DEP BOUNDS =      815685.7500       HEAD DEP BOUNDS =           0.2836
      STREAM LEAKAGE =    22504408.0000        STREAM LEAKAGE =           6.9782
        UZF RECHARGE =           0.0000          UZF RECHARGE =           0.0000
               GW ET =     3341160.0000                 GW ET =       2.2216E-10
     SURFACE LEAKAGE =           0.0000       SURFACE LEAKAGE =           0.0000

           TOTAL OUT =    35726520.0000             TOTAL OUT =          41.4399

            IN - OUT =         768.0000              IN - OUT =       2.8954E-03

 PERCENT DISCREPANCY =           0.00     PERCENT DISCREPANCY =           0.01






         TIME SUMMARY AT END OF TIME STEP    3 IN STRESS PERIOD    2
                    SECONDS     MINUTES      HOURS       DAYS        YEARS
                    -----------------------------------------------------------
   TIME STEP LENGTH  87600.      1460.0      24.333      1.0139     2.77588E-03
 STRESS PERIOD TIME 2.62800E+05  4380.0      73.000      3.0417     8.32763E-03
         TOTAL TIME 2.89080E+06  48180.      803.00      33.458     9.16039E-02
1
 
 SOLVING FOR HEAD 
                                                   Max.-Head-Change                         Max.-Flux-Residual
  Residual-Control   Outer-Iter.   Inner-Iter.     Column Row Layer    Maximum-Head-Change  Column Row Layer    Maximum-Flux-Residual          L2-NORM 
          0                 1           2             5    3     1       0.1458014465E-01       4   13    1         0.6432387590E+00      0.2286877295E+01
          0                 2           2             5    3     1       0.6432619611E-02       5    3    1         0.1697197368E+00      0.6441414126E+00
          0                 3           2             5    3     1       0.2831792734E-02       5    3    1         0.7481763194E-01      0.2550801902E+00
          0                 4           2             5    3     1       0.1245594993E-02       5    3    1         0.3292622629E-01      0.1116229119E+00
          0                 5           2             6    3     1       0.5484517402E-03       5    3    1         0.1448127629E-01      0.4967118744E-01
          0                 6           2             6    3     1       0.2440347071E-03       6    3    1         0.6390022999E-02      0.2215949327E-01
          0                 7           1             6    3     1       0.1085796563E-03       6    3    1         0.2843228092E-02      0.9890353117E-02
          0                 8           1             6    3     1       0.4830947275E-04       6    3    1         0.1265044435E-02      0.4414966915E-02
          0                 9           1             6    3     1       0.2149337792E-04       6    3    1         0.5628430682E-03      0.1971003275E-02
          0                10           1             6    3     1       0.9562390098E-05       6    3    1         0.2504134406E-03      0.8800108521E-03

    ------------------------------------------------
       NWT REQUIRED           10 OUTER ITERATIONS 
       AND A TOTAL OF         16 INNER ITERATIONS.
    ------------------------------------------------

 OUTPUT CONTROL WAS SPECIFIED FOR A NONEXISTENT TIME STEP
 OR OUTPUT CONTROL DATA ARE NOT ENTERED IN ASCENDING ORDER
 OUTPUT CONTROL STRESS PERIOD    1   TIME STEP   15
 MODEL STRESS PERIOD    2   TIME STEP    4
 APPLYING THE SPECIFIED OUTPUT CONTROL TO THE CURRENT TIME STEP

 OUTPUT CONTROL FOR STRESS PERIOD    2   TIME STEP    4
    PRINT BUDGET
    PRINT HEAD FOR ALL LAYERS
    SAVE HEAD FOR ALL LAYERS
    SAVE BUDGET
 UBUDSV SAVING "         STORAGE" ON UNIT102 AT TIME STEP     4, STRESS PERIOD    2
 UBUDSV SAVING "   CONSTANT HEAD" ON UNIT102 AT TIME STEP     4, STRESS PERIOD    2
 UBUDSV SAVING "FLOW RIGHT FACE " ON UNIT102 AT TIME STEP     4, STRESS PERIOD    2
 UBUDSV SAVING "FLOW FRONT FACE " ON UNIT102 AT TIME STEP     4, STRESS PERIOD    2

  HEAD DEP BOUNDS   PERIOD    2   STEP     4
 BOUNDARY      1   LAYER   1   ROW    13   COL     1   RATE   -0.284053    
 BOUNDARY      2   LAYER   1   ROW    14   COL     9   RATE    0.293313    



 STREAM LISTING     PERIOD      2   STEP        4

 LAYER ROW COL. STREAM  RCH.  FLOW INTO     FLOW TO   FLOW OUT OF   OVRLND.     DIRECT     STREAM       STREAM     STREAM     STREAM   STREAMBED  STREAMBED
                SEG.NO.  NO.  STRM. RCH.    AQUIFER    STRM. RCH.    RUNOFF     PRECIP       ET          HEAD       DEPTH      WIDTH   CONDCTNC.   GRADIENT

   1    1    1     1     1    2.2000E+01  2.3088E-01   2.1769E+01  0.000E+00  0.000E+00  0.000E+00  1.09418E+03  1.132E+00  1.242E+01  5.588E-02  1.377E+00
   1    2    2     1     2    2.1769E+01  3.5689E-01   2.1412E+01  0.000E+00  0.000E+00  0.000E+00  1.08919E+03  1.127E+00  1.235E+01  8.648E-02  1.376E+00
   1    3    3     1     3    2.1412E+01  3.0372E-01   2.1109E+01  0.000E+00  0.000E+00  0.000E+00  1.08354E+03  1.121E+00  1.228E+01  7.369E-02  1.374E+00
   1    3    4     1     4    2.1109E+01  2.7914E-01   2.0829E+01  0.000E+00  0.000E+00  0.000E+00  1.07852E+03  1.117E+00  1.222E+01  6.781E-02  1.372E+00
   1    4    5     2     1    1.8829E+01  0.0000E+00   1.8829E+01  0.000E+00  0.000E+00  0.000E+00  1.07295E+03  1.019E+00  1.200E+01  0.000E+00  1.340E+00
   1    5    6     2     2    1.8829E+01  0.0000E+00   1.8829E+01  0.000E+00  0.000E+00  0.000E+00  1.06753E+03  1.019E+00  1.200E+01  0.000E+00  1.340E+00
   1    6    6     2     3    1.8829E+01  0.0000E+00   1.8829E+01  0.000E+00  0.000E+00  0.000E+00  1.06281E+03  1.019E+00  1.200E+01  0.000E+00  1.340E+00
   1    7    6     2     4    1.8829E+01  0.0000E+00   1.8829E+01  0.000E+00  0.000E+00  0.000E+00  1.05809E+03  1.019E+00  1.200E+01  0.000E+00  1.340E+00
   1    8    6     2     5    1.8829E+01  0.0000E+00   1.8829E+01  0.000E+00  0.000E+00  0.000E+00  1.05338E+03  1.019E+00  1.200E+01  0.000E+00  1.340E+00
   1    3    5     3     1    2.0000E+00  2.8252E-01   1.7175E+00  0.000E+00  0.000E+00  0.000E+00  1.07555E+03  1.909E+00  9.636E+00  7.227E-02  1.955E+00
   1    3    6     3     2    1.7175E+00  2.4905E-01   1.4684E+00  0.000E+00  0.000E+00  0.000E+00  1.07264E+03  1.727E+00  8.909E+00  6.682E-02  1.864E+00
   1    3    7     3     3    1.4684E+00  1.9718E-01   1.2712E+00  0.000E+00  0.000E+00  0.000E+00  1.06987E+03  1.555E+00  8.218E+00  5.547E-02  1.777E+00
   1    4    8     3     4    1.2712E+00  2.2567E-01   1.0456E+00  0.000E+00  0.000E+00  0.000E+00  1.06682E+03  1.364E+00  7.455E+00  6.709E-02  1.682E+00
   1    5    8     3     5    1.0456E+00  1.5790E-01   8.8768E-01  0.000E+00  0.000E+00  0.000E+00  1.06362E+03  1.164E+00  6.655E+00  4.991E-02  1.582E+00
   1    6    8     3     6    8.8768E-01  5.5980E-02   8.3170E-01  0.000E+00  0.000E+00  0.000E+00  1.06158E+03  1.036E+00  6.145E+00  1.844E-02  1.518E+00
   1    5   10     4     1    1.0000E+01  0.0000E+00   1.0000E+01  0.000E+00  0.000E+00  0.000E+00  1.07837E+03  6.385E-01  1.000E+01  0.000E+00  1.213E+00
   1    5    9     4     2    1.0000E+01  0.0000E+00   1.0000E+01  0.000E+00  0.000E+00  0.000E+00  1.07155E+03  6.385E-01  1.000E+01  0.000E+00  1.213E+00
   1    6    8     4     3    1.0000E+01  0.0000E+00   1.0000E+01  0.000E+00  0.000E+00  0.000E+00  1.06382E+03  6.385E-01  1.000E+01  0.000E+00  1.213E+00
   1    6    8     5     1    1.0832E+01  2.3262E-01   1.0599E+01  0.000E+00  0.000E+00  0.000E+00  1.05869E+03  6.881E-01  1.577E+01  6.307E-02  1.229E+00
   1    7    7     5     2    1.0599E+01  2.8607E-01   1.0313E+01  0.000E+00  0.000E+00  0.000E+00  1.05418E+03  6.822E-01  1.554E+01  7.769E-02  1.227E+00
   1    8    7     5     3    1.0313E+01  1.9716E-01   1.0116E+01  0.000E+00  0.000E+00  0.000E+00  1.04993E+03  6.766E-01  1.532E+01  5.363E-02  1.226E+00
   1    8    6     5     4    1.0116E+01  1.3929E-01   9.9766E+00  0.000E+00  0.000E+00  0.000E+00  1.04692E+03  6.727E-01  1.517E+01  3.792E-02  1.224E+00
   1    9    6     6     1    2.8806E+01  0.0000E+00   2.8806E+01  0.000E+00  0.000E+00  0.000E+00  1.04406E+03  1.329E+00  1.200E+01  0.000E+00  1.443E+00
   1   10    7     6     2    2.8806E+01  0.0000E+00   2.8806E+01  0.000E+00  0.000E+00  0.000E+00  1.03951E+03  1.329E+00  1.200E+01  0.000E+00  1.443E+00
   1   11    7     6     3    2.8806E+01  0.0000E+00   2.8806E+01  0.000E+00  0.000E+00  0.000E+00  1.03497E+03  1.329E+00  1.200E+01  0.000E+00  1.443E+00
   1   12    7     6     4    2.8806E+01  0.0000E+00   2.8806E+01  0.000E+00  0.000E+00  0.000E+00  1.03042E+03  1.329E+00  1.200E+01  0.000E+00  1.443E+00
   1   13    7     6     5    2.8806E+01  0.0000E+00   2.8806E+01  0.000E+00  0.000E+00  0.000E+00  1.02724E+03  1.329E+00  1.200E+01  0.000E+00  3.737E-01
   1   14    9     7     1    1.5000E+02  1.4468E+00   1.4855E+02  0.000E+00  0.000E+00  0.000E+00  1.03987E+03  2.287E+00  5.529E+01  5.593E-01  8.623E-01
   1   13    8     7     2    1.4855E+02  2.1613E+00   1.4639E+02  0.000E+00  0.000E+00  0.000E+00  1.03478E+03  2.278E+00  5.525E+01  6.147E-01  1.172E+00
   1   13    7     7     3    1.4639E+02  1.9923E+00   1.4440E+02  0.000E+00  0.000E+00  0.000E+00  1.02969E+03  2.267E+00  5.520E+01  5.583E-01  1.190E+00
   1   13    6     8     1    1.7321E+02  1.4158E+00   1.7179E+02  0.000E+00  0.000E+00  0.000E+00  1.02484E+03  2.968E+00  4.304E+01  4.386E-01  1.076E+00
   1   13    5     8     2    1.7179E+02  6.2003E-01   1.7117E+02  0.000E+00  0.000E+00  0.000E+00  1.01859E+03  2.962E+00  4.295E+01  4.376E-01  4.723E-01
   1   13    4     8     3    1.7117E+02 -8.6116E-01   1.7203E+02  0.000E+00  0.000E+00  0.000E+00  1.01234E+03  2.963E+00  4.296E+01  4.378E+00 -6.557E-02
   1   13    3     8     4    1.7203E+02 -2.7134E+00   1.7474E+02  0.000E+00  0.000E+00  0.000E+00  1.00610E+03  2.974E+00  4.312E+01  4.395E+00 -2.058E-01
   1   13    2     8     5    1.7474E+02 -2.0048E+00   1.7675E+02  0.000E+00  0.000E+00  0.000E+00  9.99864E+02  2.989E+00  4.334E+01  4.417E+00 -1.513E-01
   1   13    1     8     6    1.7675E+02 -1.5945E+00   1.7834E+02  0.000E+00  0.000E+00  0.000E+00  9.94876E+02  3.001E+00  4.351E+01  2.660E+00 -1.998E-01
   1    6    8     9     1    0.0000E+00  0.0000E+00   0.0000E+00  0.000E+00  0.000E+00  0.000E+00  1.07850E+03  0.000E+00  4.000E+00  0.000E+00  1.000E+00



 UBDSV3 SAVING "     NETRECHARGE" ON UNIT 100 AT TIME STEP     4, STRESS PERIOD   2
 UBDSV3 SAVING "    NETDISCHARGE" ON UNIT 101 AT TIME STEP     4, STRESS PERIOD   2
 UBDSV3 SAVING "           GW ET" ON UNIT  61 AT TIME STEP     4, STRESS PERIOD   2
 UBDSV3 SAVING "    UZF RECHARGE" ON UNIT  61 AT TIME STEP     4, STRESS PERIOD   2
 UBDSV3 SAVING " SURFACE LEAKAGE" ON UNIT  61 AT TIME STEP     4, STRESS PERIOD   2
 UBDSV3 SAVING "       HORT+DUNN" ON UNIT  61 AT TIME STEP     4, STRESS PERIOD   2
 UBDSV3 SAVING "  STORAGE CHANGE" ON UNIT  61 AT TIME STEP     4, STRESS PERIOD   2


UNSATURATED ZONE PACKAGE VOLUMETRIC BUDGET FOR  TIME STEP     4 STRESS PERIOD    2
  ------------------------------------------------------------------------------



     CUMULATIVE VOLUMES      L**3       RATES FOR THIS TIME STEP      L**3/T
     ------------------                 ------------------------

           IN:                                      IN:
           ---                                      ---
        INFILTRATION =     2524194.0000          INFILTRATION =           0.8475

          OUT:                                     OUT:
          ----                                     ----
              UZF ET =      101614.9568                UZF ET =           0.2900
        UZF RECHARGE =    12864261.1855          UZF RECHARGE =          30.2090

            IN - OUT =   -10441682.1424              IN - OUT =         -29.6515

          STORAGE:                                 STORAGE:
          --------                                 --------
      STORAGE CHANGE =   -10441010.2878        STORAGE CHANGE =         -29.6514

 PERCENT DISCREPANCY IS DIFFERENCE BETWEEN IN-OUT MINUS CHANGE IN STORAGE
 DIVIDED BY THE AVERAGE OF IN AND OUT TIMES 100

 PERCENT DISCREPANCY =          -0.00     PERCENT DISCREPANCY =          -0.00






1
              HEAD IN LAYER   1 AT END OF TIME STEP     4 IN STRESS PERIOD    2
  -----------------------------------------------------------------------------

           1       2       3       4       5       6       7       8       9      10
 ...................................................................................
   1  1020.78 1020.69 6999.00 6999.00 6999.00 6999.00 6999.00 6999.00 6999.00 6999.00
   2  1020.83 1020.52 1020.43 6999.00 6999.00 1021.32 1021.37 1021.36 6999.00 6999.00
   3  6999.00 1020.52 1020.37 1020.33 1020.46 1020.63 1020.78 1020.92 6999.00 6999.00
   4  1021.01 1020.58 1020.33 1020.24 1020.25 1020.31 1020.48 1020.69 1020.69 6999.00
   5  1020.93 1020.47 1020.23 1020.14 1020.18 1020.26 1020.39 1020.54 1020.60 1020.67
   6  1020.78 1020.28 1020.07 1020.00 1020.05 1020.19 1020.39 1020.62 1020.68 1020.92
   7  1020.62 1019.94 1019.79 1019.77 1019.87 1020.09 1020.41 1020.53 1020.87 6999.00
   8  6999.00 1019.30 1019.33 1019.43 1019.60 1019.92 1020.27 1020.62 1021.39 6999.00
   9  6999.00 1018.23 1018.51 1018.86 1019.18 1019.64 1020.10 1020.86 1022.25 6999.00
  10  6999.00 1016.44 1017.13 1018.00 1018.66 1019.50 1020.24 1021.48 1023.32 1023.99
  11  6999.00 1013.12 1014.50 1016.65 1018.06 1019.59 1020.96 1023.04 1025.53 6999.00
  12  1001.40 1007.03 1010.97 1014.49 1017.39 1020.16 1022.55 1026.52 1029.83 6999.00
  13   995.48 1000.32 1006.72 1012.53 1017.17 1021.62 1026.12 1031.26 1034.17 6999.00
  14  6999.00 1005.58 1008.58 1013.04 1017.42 1021.74 1026.81 1032.63 1037.28 6999.00
  15  6999.00 6999.00 1012.08 1014.66 1017.92 1020.83 6999.00 6999.00 6999.00 6999.00

 HEAD WILL BE SAVED ON UNIT   62 AT END OF TIME STEP    4, STRESS PERIOD    2
1
  VOLUMETRIC BUDGET FOR ENTIRE MODEL AT END OF TIME STEP    4, STRESS PERIOD   2
  ------------------------------------------------------------------------------

     CUMULATIVE VOLUMES      L**3       RATES FOR THIS TIME STEP      L**3/T
     ------------------                 ------------------------

           IN:                                      IN:
           ---                                      ---
             STORAGE =           0.0000               STORAGE =           0.0000
       CONSTANT HEAD =           0.0000         CONSTANT HEAD =           0.0000
               WELLS =           0.0000                 WELLS =           0.0000
     HEAD DEP BOUNDS =      875008.8125       HEAD DEP BOUNDS =           0.2933
      STREAM LEAKAGE =    25608756.0000        STREAM LEAKAGE =          10.8303
        UZF RECHARGE =    12864262.0000          UZF RECHARGE =          30.2090
               GW ET =           0.0000                 GW ET =           0.0000
     SURFACE LEAKAGE =           0.0000       SURFACE LEAKAGE =           0.0000

            TOTAL IN =    39348024.0000              TOTAL IN =          41.3326

          OUT:                                     OUT:
          ----                                     ----
             STORAGE =    12032432.0000               STORAGE =          33.8718
       CONSTANT HEAD =           0.0000         CONSTANT HEAD =           0.0000
               WELLS =           0.0000                 WELLS =           0.0000
     HEAD DEP BOUNDS =      840568.7500       HEAD DEP BOUNDS =           0.2841
      STREAM LEAKAGE =    23132840.0000        STREAM LEAKAGE =           7.1739
        UZF RECHARGE =           0.0000          UZF RECHARGE =           0.0000
               GW ET =     3341160.0000                 GW ET =       2.2273E-10
     SURFACE LEAKAGE =           0.0000       SURFACE LEAKAGE =           0.0000

           TOTAL OUT =    39347000.0000             TOTAL OUT =          41.3297

            IN - OUT =        1024.0000              IN - OUT =       2.8801E-03

 PERCENT DISCREPANCY =           0.00     PERCENT DISCREPANCY =           0.01






         TIME SUMMARY AT END OF TIME STEP    4 IN STRESS PERIOD    2
                    SECONDS     MINUTES      HOURS       DAYS        YEARS
                    -----------------------------------------------------------
   TIME STEP LENGTH  87600.      1460.0      24.333      1.0139     2.77588E-03
 STRESS PERIOD TIME 3.50400E+05  5840.0      97.333      4.0556     1.11035E-02
         TOTAL TIME 2.97840E+06  49640.      827.33      34.472     9.43798E-02
1
 
 SOLVING FOR HEAD 
                                                   Max.-Head-Change                         Max.-Flux-Residual
  Residual-Control   Outer-Iter.   Inner-Iter.     Column Row Layer    Maximum-Head-Change  Column Row Layer    Maximum-Flux-Residual          L2-NORM 
          0                 1           2             5    3     1       0.1424914059E-01       4   13    1         0.5753275959E+00      0.2228301342E+01
          0                 2           2             5    3     1       0.6287587542E-02       5    3    1         0.1658751216E+00      0.6363222471E+00
          0                 3           2             5    3     1       0.2768192670E-02       5    3    1         0.7313257495E-01      0.2532374266E+00
          0                 4           2             6    3     1       0.1218445755E-02       5    3    1         0.3218719742E-01      0.1109072703E+00
          0                 5           2             6    3     1       0.5421691924E-03       6    3    1         0.1419630514E-01      0.4936007898E-01
          0                 6           2             6    3     1       0.2412345175E-03       6    3    1         0.6316801804E-02      0.2202213509E-01
          0                 7           1             6    3     1       0.1073317060E-03       6    3    1         0.2810593171E-02      0.9829580787E-02
          0                 8           1             6    3     1       0.4775336385E-04       6    3    1         0.1250500422E-02      0.4388074878E-02
          0                 9           1             6    3     1       0.2124559291E-04       6    3    1         0.5563621191E-03      0.1959104746E-02
          0                10           1             6    3     1       0.9451997461E-05       6    3    1         0.2475257925E-03      0.8747461586E-03

    ------------------------------------------------
       NWT REQUIRED           10 OUTER ITERATIONS 
       AND A TOTAL OF         16 INNER ITERATIONS.
    ------------------------------------------------

 OUTPUT CONTROL WAS SPECIFIED FOR A NONEXISTENT TIME STEP
 OR OUTPUT CONTROL DATA ARE NOT ENTERED IN ASCENDING ORDER
 OUTPUT CONTROL STRESS PERIOD    2   TIME STEP    1
 MODEL STRESS PERIOD    2   TIME STEP    5
 APPLYING THE SPECIFIED OUTPUT CONTROL TO THE CURRENT TIME STEP

 OUTPUT CONTROL FOR STRESS PERIOD    2   TIME STEP    5
    PRINT BUDGET
    SAVE BUDGET
 UBUDSV SAVING "         STORAGE" ON UNIT102 AT TIME STEP     5, STRESS PERIOD    2
 UBUDSV SAVING "   CONSTANT HEAD" ON UNIT102 AT TIME STEP     5, STRESS PERIOD    2
 UBUDSV SAVING "FLOW RIGHT FACE " ON UNIT102 AT TIME STEP     5, STRESS PERIOD    2
 UBUDSV SAVING "FLOW FRONT FACE " ON UNIT102 AT TIME STEP     5, STRESS PERIOD    2

  HEAD DEP BOUNDS   PERIOD    2   STEP     5
 BOUNDARY      1   LAYER   1   ROW    13   COL     1   RATE   -0.284484    
 BOUNDARY      2   LAYER   1   ROW    14   COL     9   RATE    0.293188    



 STREAM LISTING     PERIOD      2   STEP        5

 LAYER ROW COL. STREAM  RCH.  FLOW INTO     FLOW TO   FLOW OUT OF   OVRLND.     DIRECT     STREAM       STREAM     STREAM     STREAM   STREAMBED  STREAMBED
                SEG.NO.  NO.  STRM. RCH.    AQUIFER    STRM. RCH.    RUNOFF     PRECIP       ET          HEAD       DEPTH      WIDTH   CONDCTNC.   GRADIENT

   1    1    1     1     1    2.2000E+01  2.3088E-01   2.1769E+01  0.000E+00  0.000E+00  0.000E+00  1.09418E+03  1.132E+00  1.242E+01  5.588E-02  1.377E+00
   1    2    2     1     2    2.1769E+01  3.5689E-01   2.1412E+01  0.000E+00  0.000E+00  0.000E+00  1.08919E+03  1.127E+00  1.235E+01  8.648E-02  1.376E+00
   1    3    3     1     3    2.1412E+01  3.0372E-01   2.1109E+01  0.000E+00  0.000E+00  0.000E+00  1.08354E+03  1.121E+00  1.228E+01  7.369E-02  1.374E+00
   1    3    4     1     4    2.1109E+01  2.7914E-01   2.0829E+01  0.000E+00  0.000E+00  0.000E+00  1.07852E+03  1.117E+00  1.222E+01  6.781E-02  1.372E+00
   1    4    5     2     1    1.8829E+01  0.0000E+00   1.8829E+01  0.000E+00  0.000E+00  0.000E+00  1.07295E+03  1.019E+00  1.200E+01  0.000E+00  1.340E+00
   1    5    6     2     2    1.8829E+01  0.0000E+00   1.8829E+01  0.000E+00  0.000E+00  0.000E+00  1.06753E+03  1.019E+00  1.200E+01  0.000E+00  1.340E+00
   1    6    6     2     3    1.8829E+01  0.0000E+00   1.8829E+01  0.000E+00  0.000E+00  0.000E+00  1.06281E+03  1.019E+00  1.200E+01  0.000E+00  1.340E+00
   1    7    6     2     4    1.8829E+01  0.0000E+00   1.8829E+01  0.000E+00  0.000E+00  0.000E+00  1.05809E+03  1.019E+00  1.200E+01  0.000E+00  1.340E+00
   1    8    6     2     5    1.8829E+01  0.0000E+00   1.8829E+01  0.000E+00  0.000E+00  0.000E+00  1.05338E+03  1.019E+00  1.200E+01  0.000E+00  1.340E+00
   1    3    5     3     1    2.0000E+00  2.8252E-01   1.7175E+00  0.000E+00  0.000E+00  0.000E+00  1.07555E+03  1.909E+00  9.636E+00  7.227E-02  1.955E+00
   1    3    6     3     2    1.7175E+00  2.4905E-01   1.4684E+00  0.000E+00  0.000E+00  0.000E+00  1.07264E+03  1.727E+00  8.909E+00  6.682E-02  1.864E+00
   1    3    7     3     3    1.4684E+00  1.9718E-01   1.2712E+00  0.000E+00  0.000E+00  0.000E+00  1.06987E+03  1.555E+00  8.218E+00  5.547E-02  1.777E+00
   1    4    8     3     4    1.2712E+00  2.2567E-01   1.0456E+00  0.000E+00  0.000E+00  0.000E+00  1.06682E+03  1.364E+00  7.455E+00  6.709E-02  1.682E+00
   1    5    8     3     5    1.0456E+00  1.5790E-01   8.8768E-01  0.000E+00  0.000E+00  0.000E+00  1.06362E+03  1.164E+00  6.655E+00  4.991E-02  1.582E+00
   1    6    8     3     6    8.8768E-01  5.5980E-02   8.3170E-01  0.000E+00  0.000E+00  0.000E+00  1.06158E+03  1.036E+00  6.145E+00  1.844E-02  1.518E+00
   1    5   10     4     1    1.0000E+01  0.0000E+00   1.0000E+01  0.000E+00  0.000E+00  0.000E+00  1.07837E+03  6.385E-01  1.000E+01  0.000E+00  1.213E+00
   1    5    9     4     2    1.0000E+01  0.0000E+00   1.0000E+01  0.000E+00  0.000E+00  0.000E+00  1.07155E+03  6.385E-01  1.000E+01  0.000E+00  1.213E+00
   1    6    8     4     3    1.0000E+01  0.0000E+00   1.0000E+01  0.000E+00  0.000E+00  0.000E+00  1.06382E+03  6.385E-01  1.000E+01  0.000E+00  1.213E+00
   1    6    8     5     1    1.0832E+01  2.3262E-01   1.0599E+01  0.000E+00  0.000E+00  0.000E+00  1.05869E+03  6.881E-01  1.577E+01  6.307E-02  1.229E+00
   1    7    7     5     2    1.0599E+01  2.8607E-01   1.0313E+01  0.000E+00  0.000E+00  0.000E+00  1.05418E+03  6.822E-01  1.554E+01  7.769E-02  1.227E+00
   1    8    7     5     3    1.0313E+01  1.9716E-01   1.0116E+01  0.000E+00  0.000E+00  0.000E+00  1.04993E+03  6.766E-01  1.532E+01  5.363E-02  1.226E+00
   1    8    6     5     4    1.0116E+01  1.3929E-01   9.9766E+00  0.000E+00  0.000E+00  0.000E+00  1.04692E+03  6.727E-01  1.517E+01  3.792E-02  1.224E+00
   1    9    6     6     1    2.8806E+01  0.0000E+00   2.8806E+01  0.000E+00  0.000E+00  0.000E+00  1.04406E+03  1.329E+00  1.200E+01  0.000E+00  1.443E+00
   1   10    7     6     2    2.8806E+01  0.0000E+00   2.8806E+01  0.000E+00  0.000E+00  0.000E+00  1.03951E+03  1.329E+00  1.200E+01  0.000E+00  1.443E+00
   1   11    7     6     3    2.8806E+01  0.0000E+00   2.8806E+01  0.000E+00  0.000E+00  0.000E+00  1.03497E+03  1.329E+00  1.200E+01  0.000E+00  1.443E+00
   1   12    7     6     4    2.8806E+01  0.0000E+00   2.8806E+01  0.000E+00  0.000E+00  0.000E+00  1.03042E+03  1.329E+00  1.200E+01  0.000E+00  1.443E+00
   1   13    7     6     5    2.8806E+01  0.0000E+00   2.8806E+01  0.000E+00  0.000E+00  0.000E+00  1.02724E+03  1.329E+00  1.200E+01  0.000E+00  3.726E-01
   1   14    9     7     1    1.5000E+02  1.4450E+00   1.4856E+02  0.000E+00  0.000E+00  0.000E+00  1.03987E+03  2.287E+00  5.529E+01  5.593E-01  8.612E-01
   1   13    8     7     2    1.4856E+02  2.1592E+00   1.4640E+02  0.000E+00  0.000E+00  0.000E+00  1.03478E+03  2.278E+00  5.525E+01  6.147E-01  1.171E+00
   1   13    7     7     3    1.4640E+02  1.9905E+00   1.4441E+02  0.000E+00  0.000E+00  0.000E+00  1.02969E+03  2.267E+00  5.520E+01  5.583E-01  1.188E+00
   1   13    6     8     1    1.7321E+02  1.4131E+00   1.7180E+02  0.000E+00  0.000E+00  0.000E+00  1.02484E+03  2.968E+00  4.304E+01  4.386E-01  1.074E+00
   1   13    5     8     2    1.7180E+02  6.1570E-01   1.7118E+02  0.000E+00  0.000E+00  0.000E+00  1.01859E+03  2.962E+00  4.295E+01  4.376E-01  4.689E-01
   1   13    4     8     3    1.7118E+02 -9.1277E-01   1.7210E+02  0.000E+00  0.000E+00  0.000E+00  1.01234E+03  2.963E+00  4.296E+01  4.378E+00 -6.950E-02
   1   13    3     8     4    1.7210E+02 -2.7616E+00   1.7486E+02  0.000E+00  0.000E+00  0.000E+00  1.00610E+03  2.975E+00  4.313E+01  4.395E+00 -2.094E-01
   1   13    2     8     5    1.7486E+02 -2.0553E+00   1.7691E+02  0.000E+00  0.000E+00  0.000E+00  9.99865E+02  2.990E+00  4.336E+01  4.418E+00 -1.551E-01
   1   13    1     8     6    1.7691E+02 -1.6223E+00   1.7853E+02  0.000E+00  0.000E+00  0.000E+00  9.94877E+02  3.002E+00  4.353E+01  2.661E+00 -2.032E-01
   1    6    8     9     1    0.0000E+00  0.0000E+00   0.0000E+00  0.000E+00  0.000E+00  0.000E+00  1.07850E+03  0.000E+00  4.000E+00  0.000E+00  1.000E+00



 UBDSV3 SAVING "     NETRECHARGE" ON UNIT 100 AT TIME STEP     5, STRESS PERIOD   2
 UBDSV3 SAVING "    NETDISCHARGE" ON UNIT 101 AT TIME STEP     5, STRESS PERIOD   2
 UBDSV3 SAVING "           GW ET" ON UNIT  61 AT TIME STEP     5, STRESS PERIOD   2
 UBDSV3 SAVING "    UZF RECHARGE" ON UNIT  61 AT TIME STEP     5, STRESS PERIOD   2
 UBDSV3 SAVING " SURFACE LEAKAGE" ON UNIT  61 AT TIME STEP     5, STRESS PERIOD   2
 UBDSV3 SAVING "       HORT+DUNN" ON UNIT  61 AT TIME STEP     5, STRESS PERIOD   2
 UBDSV3 SAVING "  STORAGE CHANGE" ON UNIT  61 AT TIME STEP     5, STRESS PERIOD   2


UNSATURATED ZONE PACKAGE VOLUMETRIC BUDGET FOR  TIME STEP     5 STRESS PERIOD    2
  ------------------------------------------------------------------------------



     CUMULATIVE VOLUMES      L**3       RATES FOR THIS TIME STEP      L**3/T
     ------------------                 ------------------------

           IN:                                      IN:
           ---                                      ---
        INFILTRATION =     2598435.0000          INFILTRATION =           0.8475

          OUT:                                     OUT:
          ----                                     ----
              UZF ET =      127023.8047                UZF ET =           0.2901
        UZF RECHARGE =    15502600.0410          UZF RECHARGE =          30.1180

            IN - OUT =   -13031188.8457              IN - OUT =         -29.5606

          STORAGE:                                 STORAGE:
          --------                                 --------
      STORAGE CHANGE =   -13030505.3908        STORAGE CHANGE =         -29.5604

 PERCENT DISCREPANCY IS DIFFERENCE BETWEEN IN-OUT MINUS CHANGE IN STORAGE
 DIVIDED BY THE AVERAGE OF IN AND OUT TIMES 100

 PERCENT DISCREPANCY =          -0.00     PERCENT DISCREPANCY =          -0.00






1
  VOLUMETRIC BUDGET FOR ENTIRE MODEL AT END OF TIME STEP    5, STRESS PERIOD   2
  ------------------------------------------------------------------------------

     CUMULATIVE VOLUMES      L**3       RATES FOR THIS TIME STEP      L**3/T
     ------------------                 ------------------------

           IN:                                      IN:
           ---                                      ---
             STORAGE =           0.0000               STORAGE =           0.0000
       CONSTANT HEAD =           0.0000         CONSTANT HEAD =           0.0000
               WELLS =           0.0000                 WELLS =           0.0000
     HEAD DEP BOUNDS =      900692.0625       HEAD DEP BOUNDS =           0.2932
      STREAM LEAKAGE =    26556368.0000        STREAM LEAKAGE =          10.8175
        UZF RECHARGE =    15502601.0000          UZF RECHARGE =          30.1180
               GW ET =           0.0000                 GW ET =           0.0000
     SURFACE LEAKAGE =           0.0000       SURFACE LEAKAGE =           0.0000

            TOTAL IN =    42959660.0000              TOTAL IN =          41.2287

          OUT:                                     OUT:
          ----                                     ----
             STORAGE =    14974854.0000               STORAGE =          33.5893
       CONSTANT HEAD =           0.0000         CONSTANT HEAD =           0.0000
               WELLS =           0.0000                 WELLS =           0.0000
     HEAD DEP BOUNDS =      865489.5625       HEAD DEP BOUNDS =           0.2845
      STREAM LEAKAGE =    23776880.0000        STREAM LEAKAGE =           7.3521
        UZF RECHARGE =           0.0000          UZF RECHARGE =           0.0000
               GW ET =     3341160.0000                 GW ET =       1.7992E-10
     SURFACE LEAKAGE =           0.0000       SURFACE LEAKAGE =           0.0000

           TOTAL OUT =    42958384.0000             TOTAL OUT =          41.2258

            IN - OUT =        1276.0000              IN - OUT =       2.8648E-03

 PERCENT DISCREPANCY =           0.00     PERCENT DISCREPANCY =           0.01






         TIME SUMMARY AT END OF TIME STEP    5 IN STRESS PERIOD    2
                    SECONDS     MINUTES      HOURS       DAYS        YEARS
                    -----------------------------------------------------------
   TIME STEP LENGTH  87600.      1460.0      24.333      1.0139     2.77588E-03
 STRESS PERIOD TIME 4.38000E+05  7300.0      121.67      5.0694     1.38794E-02
         TOTAL TIME 3.06600E+06  51100.      851.67      35.486     9.71557E-02
1
 
 SOLVING FOR HEAD 
                                                   Max.-Head-Change                         Max.-Flux-Residual
  Residual-Control   Outer-Iter.   Inner-Iter.     Column Row Layer    Maximum-Head-Change  Column Row Layer    Maximum-Flux-Residual          L2-NORM 
          0                 1           2             5    3     1       0.1393004867E-01       2   13    1         0.5219596677E+00      0.2178471416E+01
          0                 2           2             5    3     1       0.6147763692E-02       5    3    1         0.1621687859E+00      0.6294021149E+00
          0                 3           2             5    3     1       0.2706872955E-02       5    3    1         0.7150800800E-01      0.2515108642E+00
          0                 4           2             6    3     1       0.1204534936E-02       6    3    1         0.3153812704E-01      0.1102293780E+00
          0                 5           2             6    3     1       0.5359697927E-03       6    3    1         0.1403418447E-01      0.4906666055E-01
          0                 6           2             6    3     1       0.2384718894E-03       6    3    1         0.6244552122E-02      0.2189341069E-01
          0                 7           1             6    3     1       0.1061007132E-03       6    3    1         0.2778397067E-02      0.9773001070E-02
          0                 8           1             6    3     1       0.4720490623E-04       6    3    1         0.1236154502E-02      0.4363201120E-02
          0                 9           1             6    3     1       0.2100125843E-04       6    3    1         0.5499705444E-03      0.1948166658E-02
          0                10           1             6    3     1       0.9343159264E-05       6    3    1         0.2446784414E-03      0.8699361621E-03

    ------------------------------------------------
       NWT REQUIRED           10 OUTER ITERATIONS 
       AND A TOTAL OF         16 INNER ITERATIONS.
    ------------------------------------------------

 OUTPUT CONTROL WAS SPECIFIED FOR A NONEXISTENT TIME STEP
 OR OUTPUT CONTROL DATA ARE NOT ENTERED IN ASCENDING ORDER
 OUTPUT CONTROL STRESS PERIOD    2   TIME STEP    5
 MODEL STRESS PERIOD    2   TIME STEP    6
 APPLYING THE SPECIFIED OUTPUT CONTROL TO THE CURRENT TIME STEP

 OUTPUT CONTROL FOR STRESS PERIOD    2   TIME STEP    6
    PRINT BUDGET
    SAVE BUDGET
 UBUDSV SAVING "         STORAGE" ON UNIT102 AT TIME STEP     6, STRESS PERIOD    2
 UBUDSV SAVING "   CONSTANT HEAD" ON UNIT102 AT TIME STEP     6, STRESS PERIOD    2
 UBUDSV SAVING "FLOW RIGHT FACE " ON UNIT102 AT TIME STEP     6, STRESS PERIOD    2
 UBUDSV SAVING "FLOW FRONT FACE " ON UNIT102 AT TIME STEP     6, STRESS PERIOD    2

  HEAD DEP BOUNDS   PERIOD    2   STEP     6
 BOUNDARY      1   LAYER   1   ROW    13   COL     1   RATE   -0.284891    
 BOUNDARY      2   LAYER   1   ROW    14   COL     9   RATE    0.293064    



 STREAM LISTING     PERIOD      2   STEP        6

 LAYER ROW COL. STREAM  RCH.  FLOW INTO     FLOW TO   FLOW OUT OF   OVRLND.     DIRECT     STREAM       STREAM     STREAM     STREAM   STREAMBED  STREAMBED
                SEG.NO.  NO.  STRM. RCH.    AQUIFER    STRM. RCH.    RUNOFF     PRECIP       ET          HEAD       DEPTH      WIDTH   CONDCTNC.   GRADIENT

   1    1    1     1     1    2.2000E+01  2.3088E-01   2.1769E+01  0.000E+00  0.000E+00  0.000E+00  1.09418E+03  1.132E+00  1.242E+01  5.588E-02  1.377E+00
   1    2    2     1     2    2.1769E+01  3.5689E-01   2.1412E+01  0.000E+00  0.000E+00  0.000E+00  1.08919E+03  1.127E+00  1.235E+01  8.648E-02  1.376E+00
   1    3    3     1     3    2.1412E+01  3.0372E-01   2.1109E+01  0.000E+00  0.000E+00  0.000E+00  1.08354E+03  1.121E+00  1.228E+01  7.369E-02  1.374E+00
   1    3    4     1     4    2.1109E+01  2.7914E-01   2.0829E+01  0.000E+00  0.000E+00  0.000E+00  1.07852E+03  1.117E+00  1.222E+01  6.781E-02  1.372E+00
   1    4    5     2     1    1.8829E+01  0.0000E+00   1.8829E+01  0.000E+00  0.000E+00  0.000E+00  1.07295E+03  1.019E+00  1.200E+01  0.000E+00  1.340E+00
   1    5    6     2     2    1.8829E+01  0.0000E+00   1.8829E+01  0.000E+00  0.000E+00  0.000E+00  1.06753E+03  1.019E+00  1.200E+01  0.000E+00  1.340E+00
   1    6    6     2     3    1.8829E+01  0.0000E+00   1.8829E+01  0.000E+00  0.000E+00  0.000E+00  1.06281E+03  1.019E+00  1.200E+01  0.000E+00  1.340E+00
   1    7    6     2     4    1.8829E+01  0.0000E+00   1.8829E+01  0.000E+00  0.000E+00  0.000E+00  1.05809E+03  1.019E+00  1.200E+01  0.000E+00  1.340E+00
   1    8    6     2     5    1.8829E+01  0.0000E+00   1.8829E+01  0.000E+00  0.000E+00  0.000E+00  1.05338E+03  1.019E+00  1.200E+01  0.000E+00  1.340E+00
   1    3    5     3     1    2.0000E+00  2.8252E-01   1.7175E+00  0.000E+00  0.000E+00  0.000E+00  1.07555E+03  1.909E+00  9.636E+00  7.227E-02  1.955E+00
   1    3    6     3     2    1.7175E+00  2.4905E-01   1.4684E+00  0.000E+00  0.000E+00  0.000E+00  1.07264E+03  1.727E+00  8.909E+00  6.682E-02  1.864E+00
   1    3    7     3     3    1.4684E+00  1.9718E-01   1.2712E+00  0.000E+00  0.000E+00  0.000E+00  1.06987E+03  1.555E+00  8.218E+00  5.547E-02  1.777E+00
   1    4    8     3     4    1.2712E+00  2.2567E-01   1.0456E+00  0.000E+00  0.000E+00  0.000E+00  1.06682E+03  1.364E+00  7.455E+00  6.709E-02  1.682E+00
   1    5    8     3     5    1.0456E+00  1.5790E-01   8.8768E-01  0.000E+00  0.000E+00  0.000E+00  1.06362E+03  1.164E+00  6.655E+00  4.991E-02  1.582E+00
   1    6    8     3     6    8.8768E-01  5.5980E-02   8.3170E-01  0.000E+00  0.000E+00  0.000E+00  1.06158E+03  1.036E+00  6.145E+00  1.844E-02  1.518E+00
   1    5   10     4     1    1.0000E+01  0.0000E+00   1.0000E+01  0.000E+00  0.000E+00  0.000E+00  1.07837E+03  6.385E-01  1.000E+01  0.000E+00  1.213E+00
   1    5    9     4     2    1.0000E+01  0.0000E+00   1.0000E+01  0.000E+00  0.000E+00  0.000E+00  1.07155E+03  6.385E-01  1.000E+01  0.000E+00  1.213E+00
   1    6    8     4     3    1.0000E+01  0.0000E+00   1.0000E+01  0.000E+00  0.000E+00  0.000E+00  1.06382E+03  6.385E-01  1.000E+01  0.000E+00  1.213E+00
   1    6    8     5     1    1.0832E+01  2.3262E-01   1.0599E+01  0.000E+00  0.000E+00  0.000E+00  1.05869E+03  6.881E-01  1.577E+01  6.307E-02  1.229E+00
   1    7    7     5     2    1.0599E+01  2.8607E-01   1.0313E+01  0.000E+00  0.000E+00  0.000E+00  1.05418E+03  6.822E-01  1.554E+01  7.769E-02  1.227E+00
   1    8    7     5     3    1.0313E+01  1.9716E-01   1.0116E+01  0.000E+00  0.000E+00  0.000E+00  1.04993E+03  6.766E-01  1.532E+01  5.363E-02  1.226E+00
   1    8    6     5     4    1.0116E+01  1.3929E-01   9.9766E+00  0.000E+00  0.000E+00  0.000E+00  1.04692E+03  6.727E-01  1.517E+01  3.792E-02  1.224E+00
   1    9    6     6     1    2.8806E+01  0.0000E+00   2.8806E+01  0.000E+00  0.000E+00  0.000E+00  1.04406E+03  1.329E+00  1.200E+01  0.000E+00  1.443E+00
   1   10    7     6     2    2.8806E+01  0.0000E+00   2.8806E+01  0.000E+00  0.000E+00  0.000E+00  1.03951E+03  1.329E+00  1.200E+01  0.000E+00  1.443E+00
   1   11    7     6     3    2.8806E+01  0.0000E+00   2.8806E+01  0.000E+00  0.000E+00  0.000E+00  1.03497E+03  1.329E+00  1.200E+01  0.000E+00  1.443E+00
   1   12    7     6     4    2.8806E+01  0.0000E+00   2.8806E+01  0.000E+00  0.000E+00  0.000E+00  1.03042E+03  1.329E+00  1.200E+01  0.000E+00  1.443E+00
   1   13    7     6     5    2.8806E+01  0.0000E+00   2.8806E+01  0.000E+00  0.000E+00  0.000E+00  1.02724E+03  1.329E+00  1.200E+01  0.000E+00  3.715E-01
   1   14    9     7     1    1.5000E+02  1.4431E+00   1.4856E+02  0.000E+00  0.000E+00  0.000E+00  1.03987E+03  2.287E+00  5.529E+01  5.593E-01  8.601E-01
   1   13    8     7     2    1.4856E+02  2.1572E+00   1.4640E+02  0.000E+00  0.000E+00  0.000E+00  1.03478E+03  2.278E+00  5.525E+01  6.147E-01  1.170E+00
   1   13    7     7     3    1.4640E+02  1.9886E+00   1.4441E+02  0.000E+00  0.000E+00  0.000E+00  1.02969E+03  2.267E+00  5.520E+01  5.583E-01  1.187E+00
   1   13    6     8     1    1.7322E+02  1.4104E+00   1.7181E+02  0.000E+00  0.000E+00  0.000E+00  1.02484E+03  2.968E+00  4.304E+01  4.386E-01  1.072E+00
   1   13    5     8     2    1.7181E+02  6.1147E-01   1.7120E+02  0.000E+00  0.000E+00  0.000E+00  1.01859E+03  2.962E+00  4.295E+01  4.377E-01  4.657E-01
   1   13    4     8     3    1.7120E+02 -9.5910E-01   1.7215E+02  0.000E+00  0.000E+00  0.000E+00  1.01234E+03  2.963E+00  4.296E+01  4.378E+00 -7.302E-02
   1   13    3     8     4    1.7215E+02 -2.8052E+00   1.7496E+02  0.000E+00  0.000E+00  0.000E+00  1.00610E+03  2.975E+00  4.314E+01  4.396E+00 -2.127E-01
   1   13    2     8     5    1.7496E+02 -2.1013E+00   1.7706E+02  0.000E+00  0.000E+00  0.000E+00  9.99866E+02  2.991E+00  4.337E+01  4.419E+00 -1.585E-01
   1   13    1     8     6    1.7706E+02 -1.6487E+00   1.7871E+02  0.000E+00  0.000E+00  0.000E+00  9.94878E+02  3.003E+00  4.354E+01  2.662E+00 -2.064E-01
   1    6    8     9     1    0.0000E+00  0.0000E+00   0.0000E+00  0.000E+00  0.000E+00  0.000E+00  1.07850E+03  0.000E+00  4.000E+00  0.000E+00  1.000E+00



 UBDSV3 SAVING "     NETRECHARGE" ON UNIT 100 AT TIME STEP     6, STRESS PERIOD   2
 UBDSV3 SAVING "    NETDISCHARGE" ON UNIT 101 AT TIME STEP     6, STRESS PERIOD   2
 UBDSV3 SAVING "           GW ET" ON UNIT  61 AT TIME STEP     6, STRESS PERIOD   2
 UBDSV3 SAVING "    UZF RECHARGE" ON UNIT  61 AT TIME STEP     6, STRESS PERIOD   2
 UBDSV3 SAVING " SURFACE LEAKAGE" ON UNIT  61 AT TIME STEP     6, STRESS PERIOD   2
 UBDSV3 SAVING "       HORT+DUNN" ON UNIT  61 AT TIME STEP     6, STRESS PERIOD   2
 UBDSV3 SAVING "  STORAGE CHANGE" ON UNIT  61 AT TIME STEP     6, STRESS PERIOD   2


UNSATURATED ZONE PACKAGE VOLUMETRIC BUDGET FOR  TIME STEP     6 STRESS PERIOD    2
  ------------------------------------------------------------------------------



     CUMULATIVE VOLUMES      L**3       RATES FOR THIS TIME STEP      L**3/T
     ------------------                 ------------------------

           IN:                                      IN:
           ---                                      ---
        INFILTRATION =     2672676.0000          INFILTRATION =           0.8475

          OUT:                                     OUT:
          ----                                     ----
              UZF ET =      152434.1735                UZF ET =           0.2901
        UZF RECHARGE =    18133459.1309          UZF RECHARGE =          30.0326

            IN - OUT =   -15613217.3044              IN - OUT =         -29.4752

          STORAGE:                                 STORAGE:
          --------                                 --------
      STORAGE CHANGE =   -15612522.8892        STORAGE CHANGE =         -29.4751

 PERCENT DISCREPANCY IS DIFFERENCE BETWEEN IN-OUT MINUS CHANGE IN STORAGE
 DIVIDED BY THE AVERAGE OF IN AND OUT TIMES 100

 PERCENT DISCREPANCY =          -0.00     PERCENT DISCREPANCY =          -0.00






1
  VOLUMETRIC BUDGET FOR ENTIRE MODEL AT END OF TIME STEP    6, STRESS PERIOD   2
  ------------------------------------------------------------------------------

     CUMULATIVE VOLUMES      L**3       RATES FOR THIS TIME STEP      L**3/T
     ------------------                 ------------------------

           IN:                                      IN:
           ---                                      ---
             STORAGE =           0.0000               STORAGE =           0.0000
       CONSTANT HEAD =           0.0000         CONSTANT HEAD =           0.0000
               WELLS =           0.0000                 WELLS =           0.0000
     HEAD DEP BOUNDS =      926364.5000       HEAD DEP BOUNDS =           0.2931
      STREAM LEAKAGE =    27502870.0000        STREAM LEAKAGE =          10.8048
        UZF RECHARGE =    18133460.0000          UZF RECHARGE =          30.0326
               GW ET =           0.0000                 GW ET =           0.0000
     SURFACE LEAKAGE =           0.0000       SURFACE LEAKAGE =           0.0000

            TOTAL IN =    46562696.0000              TOTAL IN =          41.1305

          OUT:                                     OUT:
          ----                                     ----
             STORAGE =    17894418.0000               STORAGE =          33.3284
       CONSTANT HEAD =           0.0000         CONSTANT HEAD =           0.0000
               WELLS =           0.0000                 WELLS =           0.0000
     HEAD DEP BOUNDS =      890446.0625       HEAD DEP BOUNDS =           0.2849
      STREAM LEAKAGE =    24435142.0000        STREAM LEAKAGE =           7.5144
        UZF RECHARGE =           0.0000          UZF RECHARGE =           0.0000
               GW ET =     3341160.0000                 GW ET =       2.2391E-10
     SURFACE LEAKAGE =           0.0000       SURFACE LEAKAGE =           0.0000

           TOTAL OUT =    46561168.0000             TOTAL OUT =          41.1277

            IN - OUT =        1528.0000              IN - OUT =       2.8496E-03

 PERCENT DISCREPANCY =           0.00     PERCENT DISCREPANCY =           0.01






         TIME SUMMARY AT END OF TIME STEP    6 IN STRESS PERIOD    2
                    SECONDS     MINUTES      HOURS       DAYS        YEARS
                    -----------------------------------------------------------
   TIME STEP LENGTH  87600.      1460.0      24.333      1.0139     2.77588E-03
 STRESS PERIOD TIME 5.25600E+05  8760.0      146.00      6.0833     1.66553E-02
         TOTAL TIME 3.15360E+06  52560.      876.00      36.500     9.99316E-02
1
 
 SOLVING FOR HEAD 
                                                   Max.-Head-Change                         Max.-Flux-Residual
  Residual-Control   Outer-Iter.   Inner-Iter.     Column Row Layer    Maximum-Head-Change  Column Row Layer    Maximum-Flux-Residual          L2-NORM 
          0                 1           2             5    3     1       0.1362253936E-01       2    2    1         0.4891024667E+00      0.2136053104E+01
          0                 2           2             5    3     1       0.6013005272E-02       5    3    1         0.1585969124E+00      0.6231841317E+00
          0                 3           2             6    3     1       0.2676072154E-02       6    3    1         0.7005748517E-01      0.2498516854E+00
          0                 4           2             6    3     1       0.1190849912E-02       6    3    1         0.3118020552E-01      0.1095657195E+00
          0                 5           2             6    3     1       0.5298718850E-03       6    3    1         0.1387469948E-01      0.4877851151E-01
          0                 6           2             6    3     1       0.2357548657E-03       6    3    1         0.6173487099E-02      0.2176693378E-01
          0                 7           1             6    3     1       0.1048902056E-03       6    3    1         0.2746733259E-02      0.9717401943E-02
          0                 8           1             6    3     1       0.4666564568E-04       6    3    1         0.1222047649E-02      0.4338750060E-02
          0                 9           1             6    3     1       0.2076105204E-04       6    3    1         0.5436863054E-03      0.1937412580E-02
          0                10           1             6    3     1       0.9236173390E-05       6    3    1         0.2418792611E-03      0.8652045834E-03

    ------------------------------------------------
       NWT REQUIRED           10 OUTER ITERATIONS 
       AND A TOTAL OF         16 INNER ITERATIONS.
    ------------------------------------------------

 NO OUTPUT CONTROL FOR STRESS PERIOD    2   TIME STEP    7
 
 SOLVING FOR HEAD 
                                                   Max.-Head-Change                         Max.-Flux-Residual
  Residual-Control   Outer-Iter.   Inner-Iter.     Column Row Layer    Maximum-Head-Change  Column Row Layer    Maximum-Flux-Residual          L2-NORM 
          0                 1           2             6    3     1       0.1334725441E-01       2    2    1         0.4868292657E+00      0.2099857925E+01
          0                 2           2             6    3     1       0.5944214857E-02       6    3    1         0.1555593456E+00      0.6175762796E+00
          0                 3           2             6    3     1       0.2645760113E-02       6    3    1         0.6926444826E-01      0.2482629793E+00
          0                 4           2             6    3     1       0.1177346128E-02       6    3    1         0.3082697454E-01      0.1089203277E+00
          0                 5           2             6    3     1       0.5238557596E-03       6    3    1         0.1371733163E-01      0.4849771860E-01
          0                 6           2             6    3     1       0.2330747279E-03       6    3    1         0.6103377352E-02      0.2164358718E-01
          0                 7           1             6    3     1       0.1036963252E-03       6    3    1         0.2715500262E-02      0.9663160126E-02
          0                 8           1             6    3     1       0.4613387671E-04       6    3    1         0.1208134986E-02      0.4314889441E-02
          0                 9           1             6    3     1       0.2052421889E-04       6    3    1         0.5374895461E-03      0.1926914594E-02
          0                10           1             6    3     1       0.9130705815E-05       6    3    1         0.2391194710E-03      0.8605860071E-03

    ------------------------------------------------
       NWT REQUIRED           10 OUTER ITERATIONS 
       AND A TOTAL OF         16 INNER ITERATIONS.
    ------------------------------------------------

 NO OUTPUT CONTROL FOR STRESS PERIOD    2   TIME STEP    8
 
 SOLVING FOR HEAD 
                                                   Max.-Head-Change                         Max.-Flux-Residual
  Residual-Control   Outer-Iter.   Inner-Iter.     Column Row Layer    Maximum-Head-Change  Column Row Layer    Maximum-Flux-Residual          L2-NORM 
          0                 1           2             6    3     1       0.1319657751E-01       2    2    1         0.4845967435E+00      0.2068887940E+01
          0                 2           2             6    3     1       0.5877184824E-02       6    3    1         0.1538044372E+00      0.6124819748E+00
          0                 3           2             6    3     1       0.2615911990E-02       6    3    1         0.6848346109E-01      0.2467367575E+00
          0                 4           2             6    3     1       0.1164050852E-02       6    3    1         0.3047915841E-01      0.1082920449E+00
          0                 5           2             6    3     1       0.5179333356E-03       6    3    1         0.1356239757E-01      0.4822371418E-01
          0                 6           2             6    3     1       0.2304366858E-03       6    3    1         0.6034361291E-02      0.2152319281E-01
          0                 7           1             6    3     1       0.1025213490E-03       6    3    1         0.2684758571E-02      0.9610193386E-02
          0                 8           1             6    3     1       0.4561059464E-04       6    3    1         0.1194442945E-02      0.4291582715E-02
          0                 9           1             6    3     1       0.2029119368E-04       6    3    1         0.5313918116E-03      0.1916657853E-02
          0                10           1             6    3     1       0.9026946123E-05       6    3    1         0.2364041162E-03      0.8560706891E-03

    ------------------------------------------------
       NWT REQUIRED           10 OUTER ITERATIONS 
       AND A TOTAL OF         16 INNER ITERATIONS.
    ------------------------------------------------

 NO OUTPUT CONTROL FOR STRESS PERIOD    2   TIME STEP    9
 
 SOLVING FOR HEAD 
                                                   Max.-Head-Change                         Max.-Flux-Residual
  Residual-Control   Outer-Iter.   Inner-Iter.     Column Row Layer    Maximum-Head-Change  Column Row Layer    Maximum-Flux-Residual          L2-NORM 
          0                 1           2             6    3     1       0.1304818564E-01       2    2    1         0.4823999566E+00      0.2042298935E+01
          0                 2           2             6    3     1       0.5811179776E-02       6    3    1         0.1520761739E+00      0.6078251555E+00
          0                 3           2             6    3     1       0.2586524494E-02       6    3    1         0.6771443531E-01      0.2452677191E+00
          0                 4           2             6    3     1       0.1150962664E-02       6    3    1         0.3013671899E-01      0.1076804718E+00
          0                 5           2             6    3     1       0.5121040042E-03       6    3    1         0.1340988088E-01      0.4795652885E-01
          0                 6           2             6    3     1       0.2278404782E-03       6    3    1         0.5966431867E-02      0.2140572775E-01
          0                 7           1             6    3     1       0.1013651656E-03       6    3    1         0.2654505167E-02      0.9558501302E-02
          0                 8           1             6    3     1       0.4509575056E-04       6    3    1         0.1180970239E-02      0.4268830087E-02
          0                 9           1             6    3     1       0.2006195728E-04       6    3    1         0.5253925764E-03      0.1906640953E-02
          0                10           1             6    3     1       0.8924886686E-05       6    3    1         0.2337329673E-03      0.8516607620E-03

    ------------------------------------------------
       NWT REQUIRED           10 OUTER ITERATIONS 
       AND A TOTAL OF         16 INNER ITERATIONS.
    ------------------------------------------------

 OUTPUT CONTROL FOR STRESS PERIOD    2   TIME STEP   10
    PRINT BUDGET
    SAVE BUDGET
 UBUDSV SAVING "         STORAGE" ON UNIT102 AT TIME STEP    10, STRESS PERIOD    2
 UBUDSV SAVING "   CONSTANT HEAD" ON UNIT102 AT TIME STEP    10, STRESS PERIOD    2
 UBUDSV SAVING "FLOW RIGHT FACE " ON UNIT102 AT TIME STEP    10, STRESS PERIOD    2
 UBUDSV SAVING "FLOW FRONT FACE " ON UNIT102 AT TIME STEP    10, STRESS PERIOD    2

  HEAD DEP BOUNDS   PERIOD    2   STEP    10
 BOUNDARY      1   LAYER   1   ROW    13   COL     1   RATE   -0.286307    
 BOUNDARY      2   LAYER   1   ROW    14   COL     9   RATE    0.292578    



 STREAM LISTING     PERIOD      2   STEP       10

 LAYER ROW COL. STREAM  RCH.  FLOW INTO     FLOW TO   FLOW OUT OF   OVRLND.     DIRECT     STREAM       STREAM     STREAM     STREAM   STREAMBED  STREAMBED
                SEG.NO.  NO.  STRM. RCH.    AQUIFER    STRM. RCH.    RUNOFF     PRECIP       ET          HEAD       DEPTH      WIDTH   CONDCTNC.   GRADIENT

   1    1    1     1     1    2.2000E+01  2.3088E-01   2.1769E+01  0.000E+00  0.000E+00  0.000E+00  1.09418E+03  1.132E+00  1.242E+01  5.588E-02  1.377E+00
   1    2    2     1     2    2.1769E+01  3.5689E-01   2.1412E+01  0.000E+00  0.000E+00  0.000E+00  1.08919E+03  1.127E+00  1.235E+01  8.648E-02  1.376E+00
   1    3    3     1     3    2.1412E+01  3.0372E-01   2.1109E+01  0.000E+00  0.000E+00  0.000E+00  1.08354E+03  1.121E+00  1.228E+01  7.369E-02  1.374E+00
   1    3    4     1     4    2.1109E+01  2.7914E-01   2.0829E+01  0.000E+00  0.000E+00  0.000E+00  1.07852E+03  1.117E+00  1.222E+01  6.781E-02  1.372E+00
   1    4    5     2     1    1.8829E+01  0.0000E+00   1.8829E+01  0.000E+00  0.000E+00  0.000E+00  1.07295E+03  1.019E+00  1.200E+01  0.000E+00  1.340E+00
   1    5    6     2     2    1.8829E+01  0.0000E+00   1.8829E+01  0.000E+00  0.000E+00  0.000E+00  1.06753E+03  1.019E+00  1.200E+01  0.000E+00  1.340E+00
   1    6    6     2     3    1.8829E+01  0.0000E+00   1.8829E+01  0.000E+00  0.000E+00  0.000E+00  1.06281E+03  1.019E+00  1.200E+01  0.000E+00  1.340E+00
   1    7    6     2     4    1.8829E+01  0.0000E+00   1.8829E+01  0.000E+00  0.000E+00  0.000E+00  1.05809E+03  1.019E+00  1.200E+01  0.000E+00  1.340E+00
   1    8    6     2     5    1.8829E+01  0.0000E+00   1.8829E+01  0.000E+00  0.000E+00  0.000E+00  1.05338E+03  1.019E+00  1.200E+01  0.000E+00  1.340E+00
   1    3    5     3     1    2.0000E+00  2.8252E-01   1.7175E+00  0.000E+00  0.000E+00  0.000E+00  1.07555E+03  1.909E+00  9.636E+00  7.227E-02  1.955E+00
   1    3    6     3     2    1.7175E+00  2.4905E-01   1.4684E+00  0.000E+00  0.000E+00  0.000E+00  1.07264E+03  1.727E+00  8.909E+00  6.682E-02  1.864E+00
   1    3    7     3     3    1.4684E+00  1.9718E-01   1.2712E+00  0.000E+00  0.000E+00  0.000E+00  1.06987E+03  1.555E+00  8.218E+00  5.547E-02  1.777E+00
   1    4    8     3     4    1.2712E+00  2.2567E-01   1.0456E+00  0.000E+00  0.000E+00  0.000E+00  1.06682E+03  1.364E+00  7.455E+00  6.709E-02  1.682E+00
   1    5    8     3     5    1.0456E+00  1.5790E-01   8.8768E-01  0.000E+00  0.000E+00  0.000E+00  1.06362E+03  1.164E+00  6.655E+00  4.991E-02  1.582E+00
   1    6    8     3     6    8.8768E-01  5.5980E-02   8.3170E-01  0.000E+00  0.000E+00  0.000E+00  1.06158E+03  1.036E+00  6.145E+00  1.844E-02  1.518E+00
   1    5   10     4     1    1.0000E+01  0.0000E+00   1.0000E+01  0.000E+00  0.000E+00  0.000E+00  1.07837E+03  6.385E-01  1.000E+01  0.000E+00  1.213E+00
   1    5    9     4     2    1.0000E+01  0.0000E+00   1.0000E+01  0.000E+00  0.000E+00  0.000E+00  1.07155E+03  6.385E-01  1.000E+01  0.000E+00  1.213E+00
   1    6    8     4     3    1.0000E+01  0.0000E+00   1.0000E+01  0.000E+00  0.000E+00  0.000E+00  1.06382E+03  6.385E-01  1.000E+01  0.000E+00  1.213E+00
   1    6    8     5     1    1.0832E+01  2.3262E-01   1.0599E+01  0.000E+00  0.000E+00  0.000E+00  1.05869E+03  6.881E-01  1.577E+01  6.307E-02  1.229E+00
   1    7    7     5     2    1.0599E+01  2.8607E-01   1.0313E+01  0.000E+00  0.000E+00  0.000E+00  1.05418E+03  6.822E-01  1.554E+01  7.769E-02  1.227E+00
   1    8    7     5     3    1.0313E+01  1.9716E-01   1.0116E+01  0.000E+00  0.000E+00  0.000E+00  1.04993E+03  6.766E-01  1.532E+01  5.363E-02  1.226E+00
   1    8    6     5     4    1.0116E+01  1.3929E-01   9.9766E+00  0.000E+00  0.000E+00  0.000E+00  1.04692E+03  6.727E-01  1.517E+01  3.792E-02  1.224E+00
   1    9    6     6     1    2.8806E+01  0.0000E+00   2.8806E+01  0.000E+00  0.000E+00  0.000E+00  1.04406E+03  1.329E+00  1.200E+01  0.000E+00  1.443E+00
   1   10    7     6     2    2.8806E+01  0.0000E+00   2.8806E+01  0.000E+00  0.000E+00  0.000E+00  1.03951E+03  1.329E+00  1.200E+01  0.000E+00  1.443E+00
   1   11    7     6     3    2.8806E+01  0.0000E+00   2.8806E+01  0.000E+00  0.000E+00  0.000E+00  1.03497E+03  1.329E+00  1.200E+01  0.000E+00  1.443E+00
   1   12    7     6     4    2.8806E+01  0.0000E+00   2.8806E+01  0.000E+00  0.000E+00  0.000E+00  1.03042E+03  1.329E+00  1.200E+01  0.000E+00  1.443E+00
   1   13    7     6     5    2.8806E+01  0.0000E+00   2.8806E+01  0.000E+00  0.000E+00  0.000E+00  1.02724E+03  1.329E+00  1.200E+01  0.000E+00  3.669E-01
   1   14    9     7     1    1.5000E+02  1.4360E+00   1.4856E+02  0.000E+00  0.000E+00  0.000E+00  1.03987E+03  2.287E+00  5.529E+01  5.593E-01  8.559E-01
   1   13    8     7     2    1.4856E+02  2.1490E+00   1.4642E+02  0.000E+00  0.000E+00  0.000E+00  1.03478E+03  2.278E+00  5.525E+01  6.147E-01  1.165E+00
   1   13    7     7     3    1.4642E+02  1.9809E+00   1.4443E+02  0.000E+00  0.000E+00  0.000E+00  1.02969E+03  2.267E+00  5.520E+01  5.583E-01  1.183E+00
   1   13    6     8     1    1.7324E+02  1.4001E+00   1.7184E+02  0.000E+00  0.000E+00  0.000E+00  1.02484E+03  2.969E+00  4.305E+01  4.387E-01  1.064E+00
   1   13    5     8     2    1.7184E+02  5.9563E-01   1.7124E+02  0.000E+00  0.000E+00  0.000E+00  1.01859E+03  2.962E+00  4.295E+01  4.377E-01  4.536E-01
   1   13    4     8     3    1.7124E+02 -1.1032E+00   1.7235E+02  0.000E+00  0.000E+00  0.000E+00  1.01234E+03  2.964E+00  4.298E+01  4.379E+00 -8.397E-02
   1   13    3     8     4    1.7235E+02 -2.9425E+00   1.7529E+02  0.000E+00  0.000E+00  0.000E+00  1.00610E+03  2.977E+00  4.317E+01  4.399E+00 -2.230E-01
   1   13    2     8     5    1.7529E+02 -2.2482E+00   1.7754E+02  0.000E+00  0.000E+00  0.000E+00  9.99868E+02  2.993E+00  4.341E+01  4.423E+00 -1.694E-01
   1   13    1     8     6    1.7754E+02 -1.7410E+00   1.7928E+02  0.000E+00  0.000E+00  0.000E+00  9.94881E+02  3.006E+00  4.359E+01  2.665E+00 -2.178E-01
   1    6    8     9     1    0.0000E+00  0.0000E+00   0.0000E+00  0.000E+00  0.000E+00  0.000E+00  1.07850E+03  0.000E+00  4.000E+00  0.000E+00  1.000E+00



 UBDSV3 SAVING "     NETRECHARGE" ON UNIT 100 AT TIME STEP    10, STRESS PERIOD   2
 UBDSV3 SAVING "    NETDISCHARGE" ON UNIT 101 AT TIME STEP    10, STRESS PERIOD   2
 UBDSV3 SAVING "           GW ET" ON UNIT  61 AT TIME STEP    10, STRESS PERIOD   2
 UBDSV3 SAVING "    UZF RECHARGE" ON UNIT  61 AT TIME STEP    10, STRESS PERIOD   2
 UBDSV3 SAVING " SURFACE LEAKAGE" ON UNIT  61 AT TIME STEP    10, STRESS PERIOD   2
 UBDSV3 SAVING "       HORT+DUNN" ON UNIT  61 AT TIME STEP    10, STRESS PERIOD   2
 UBDSV3 SAVING "  STORAGE CHANGE" ON UNIT  61 AT TIME STEP    10, STRESS PERIOD   2


UNSATURATED ZONE PACKAGE VOLUMETRIC BUDGET FOR  TIME STEP    10 STRESS PERIOD    2
  ------------------------------------------------------------------------------



     CUMULATIVE VOLUMES      L**3       RATES FOR THIS TIME STEP      L**3/T
     ------------------                 ------------------------

           IN:                                      IN:
           ---                                      ---
        INFILTRATION =     2969640.0000          INFILTRATION =           0.8475

          OUT:                                     OUT:
          ----                                     ----
              UZF ET =      254062.8531                UZF ET =           0.2900
        UZF RECHARGE =    28590368.7324          UZF RECHARGE =          29.7372

            IN - OUT =   -25874791.5855              IN - OUT =         -29.1797

          STORAGE:                                 STORAGE:
          --------                                 --------
      STORAGE CHANGE =   -25874059.9680        STORAGE CHANGE =         -29.1796

 PERCENT DISCREPANCY IS DIFFERENCE BETWEEN IN-OUT MINUS CHANGE IN STORAGE
 DIVIDED BY THE AVERAGE OF IN AND OUT TIMES 100

 PERCENT DISCREPANCY =          -0.00     PERCENT DISCREPANCY =          -0.00






1
  VOLUMETRIC BUDGET FOR ENTIRE MODEL AT END OF TIME STEP   10, STRESS PERIOD   2
  ------------------------------------------------------------------------------

     CUMULATIVE VOLUMES      L**3       RATES FOR THIS TIME STEP      L**3/T
     ------------------                 ------------------------

           IN:                                      IN:
           ---                                      ---
             STORAGE =           0.0000               STORAGE =           0.0000
       CONSTANT HEAD =           0.0000         CONSTANT HEAD =           0.0000
               WELLS =           0.0000                 WELLS =           0.0000
     HEAD DEP BOUNDS =     1028947.4375       HEAD DEP BOUNDS =           0.2926
      STREAM LEAKAGE =    31278058.0000        STREAM LEAKAGE =          10.7557
        UZF RECHARGE =    28590372.0000          UZF RECHARGE =          29.7372
               GW ET =           0.0000                 GW ET =           0.0000
     SURFACE LEAKAGE =           0.0000       SURFACE LEAKAGE =           0.0000

            TOTAL IN =    60897376.0000              TOTAL IN =          40.7855

          OUT:                                     OUT:
          ----                                     ----
             STORAGE =    29375848.0000               STORAGE =          32.4615
       CONSTANT HEAD =           0.0000         CONSTANT HEAD =           0.0000
               WELLS =           0.0000                 WELLS =           0.0000
     HEAD DEP BOUNDS =      990590.9375       HEAD DEP BOUNDS =           0.2863
      STREAM LEAKAGE =    27187258.0000        STREAM LEAKAGE =           8.0349
        UZF RECHARGE =           0.0000          UZF RECHARGE =           0.0000
               GW ET =     3341160.0000                 GW ET =       2.2641E-10
     SURFACE LEAKAGE =           0.0000       SURFACE LEAKAGE =           0.0000

           TOTAL OUT =    60894856.0000             TOTAL OUT =          40.7827

            IN - OUT =        2520.0000              IN - OUT =       2.8152E-03

 PERCENT DISCREPANCY =           0.00     PERCENT DISCREPANCY =           0.01






         TIME SUMMARY AT END OF TIME STEP   10 IN STRESS PERIOD    2
                    SECONDS     MINUTES      HOURS       DAYS        YEARS
                    -----------------------------------------------------------
   TIME STEP LENGTH  87600.      1460.0      24.333      1.0139     2.77588E-03
 STRESS PERIOD TIME 8.76000E+05  14600.      243.33      10.139     2.77588E-02
         TOTAL TIME 3.50400E+06  58400.      973.33      40.556     0.11104    
1
 
 SOLVING FOR HEAD 
                                                   Max.-Head-Change                         Max.-Flux-Residual
  Residual-Control   Outer-Iter.   Inner-Iter.     Column Row Layer    Maximum-Head-Change  Column Row Layer    Maximum-Flux-Residual          L2-NORM 
          0                 1           2             6    3     1       0.1290189401E-01       2    2    1         0.4802423734E+00      0.2019390515E+01
          0                 2           2             6    3     1       0.5746116756E-02       6    3    1         0.1503723996E+00      0.6035393513E+00
          0                 3           2             6    3     1       0.2557560364E-02       6    3    1         0.6695640281E-01      0.2438515011E+00
          0                 4           2             6    3     1       0.1138064833E-02       6    3    1         0.2979922146E-01      0.1070848851E+00
          0                 5           2             6    3     1       0.5063602492E-03       6    3    1         0.1325958625E-01      0.4769589556E-01
          0                 6           2             6    3     1       0.2252827305E-03       6    3    1         0.5899501363E-02      0.2129108112E-01
          0                 7           1             6    3     1       0.1002262609E-03       6    3    1         0.2624700679E-02      0.9508037153E-02
          0                 8           1             6    3     1       0.4458866618E-04       6    3    1         0.1167699189E-02      0.4246612362E-02
          0                 9           1             6    3     1       0.1983620380E-04       6    3    1         0.5194838850E-03      0.1896858800E-02
          0                10           1             6    3     1       0.8824389693E-05       6    3    1         0.2311024580E-03      0.8473525562E-03

    ------------------------------------------------
       NWT REQUIRED           10 OUTER ITERATIONS 
       AND A TOTAL OF         16 INNER ITERATIONS.
    ------------------------------------------------

 NO OUTPUT CONTROL FOR STRESS PERIOD    2   TIME STEP   11
 
 SOLVING FOR HEAD 
                                                   Max.-Head-Change                         Max.-Flux-Residual
  Residual-Control   Outer-Iter.   Inner-Iter.     Column Row Layer    Maximum-Head-Change  Column Row Layer    Maximum-Flux-Residual          L2-NORM 
          0                 1           2             6    3     1       0.1275785332E-01       2    2    1         0.4781211693E+00      0.1999568870E+01
          0                 2           2             6    3     1       0.5682062442E-02       6    3    1         0.1486948698E+00      0.5995722554E+00
          0                 3           2             6    3     1       0.2529049027E-02       6    3    1         0.6621013948E-01      0.2424831351E+00
          0                 4           2             6    3     1       0.1125370328E-02       6    3    1         0.2946700807E-01      0.1065044953E+00
          0                 5           2             6    3     1       0.5007077902E-03       6    3    1         0.1311166457E-01      0.4744155156E-01
          0                 6           2             6    3     1       0.2227659634E-03       6    3    1         0.5833636299E-02      0.2117916214E-01
          0                 7           1             6    3     1       0.9910574558E-04       6    3    1         0.2595374421E-02      0.9458755845E-02
          0                 8           1             6    3     1       0.4408983058E-04       6    3    1         0.1154642720E-02      0.4224909409E-02
          0                 9           1             6    3     1       0.1961414884E-04       6    3    1         0.5136714445E-03      0.1887298139E-02
          0                10           1             6    3     1       0.8725551186E-05       6    3    1         0.2285151143E-03      0.8431408134E-03

    ------------------------------------------------
       NWT REQUIRED           10 OUTER ITERATIONS 
       AND A TOTAL OF         16 INNER ITERATIONS.
    ------------------------------------------------

 NO OUTPUT CONTROL FOR STRESS PERIOD    2   TIME STEP   12
 
 SOLVING FOR HEAD 
                                                   Max.-Head-Change                         Max.-Flux-Residual
  Residual-Control   Outer-Iter.   Inner-Iter.     Column Row Layer    Maximum-Head-Change  Column Row Layer    Maximum-Flux-Residual          L2-NORM 
          0                 1           2             6    3     1       0.1261604008E-01       2    2    1         0.4760356383E+00      0.1982173374E+01
          0                 2           2             6    3     1       0.5619004423E-02       6    3    1         0.1470433008E+00      0.5958339518E+00
          0                 3           2             6    3     1       0.2500984125E-02       6    3    1         0.6547549658E-01      0.2411534541E+00
          0                 4           2             6    3     1       0.1112875964E-02       6    3    1         0.2914000301E-01      0.1059379319E+00
          0                 5           2             6    3     1       0.4951450529E-03       6    3    1         0.1296607795E-01      0.4719308820E-01
          0                 6           2             6    3     1       0.2202894101E-03       6    3    1         0.5768818007E-02      0.2106979386E-01
          0                 7           1             6    3     1       0.9800324798E-04       6    3    1         0.2566517293E-02      0.9410589819E-02
          0                 8           1             6    3     1       0.4359906644E-04       6    3    1         0.1141796452E-02      0.4203691110E-02
          0                 9           1             6    3     1       0.1939570861E-04       6    3    1         0.5079531558E-03      0.1877949866E-02
          0                10           1             6    3     1       0.8628330773E-05       6    3    1         0.2259699266E-03      0.8390213741E-03

    ------------------------------------------------
       NWT REQUIRED           10 OUTER ITERATIONS 
       AND A TOTAL OF         16 INNER ITERATIONS.
    ------------------------------------------------

 NO OUTPUT CONTROL FOR STRESS PERIOD    2   TIME STEP   13
 
 SOLVING FOR HEAD 
                                                   Max.-Head-Change                         Max.-Flux-Residual
  Residual-Control   Outer-Iter.   Inner-Iter.     Column Row Layer    Maximum-Head-Change  Column Row Layer    Maximum-Flux-Residual          L2-NORM 
          0                 1           2             6    3     1       0.1247626550E-01       2    2    1         0.4739850892E+00      0.1965924995E+01
          0                 2           2             6    3     1       0.5556860806E-02       6    3    1         0.1454155048E+00      0.5921817782E+00
          0                 3           2             6    3     1       0.2473330062E-02       6    3    1         0.6475152435E-01      0.2398518156E+00
          0                 4           2             6    3     1       0.1100566255E-02       6    3    1         0.2881779330E-01      0.1053837853E+00
          0                 5           2             6    3     1       0.4896652977E-03       6    3    1         0.1282264669E-01      0.4695012826E-01
          0                 6           2             6    3     1       0.2178501359E-03       6    3    1         0.5704968280E-02      0.2096283812E-01
          0                 7           1             6    3     1       0.9691749305E-04       6    3    1         0.2538095279E-02      0.9363468576E-02
          0                 8           1             6    3     1       0.4311581777E-04       6    3    1         0.1129145572E-02      0.4182927338E-02
          0                 9           1             6    3     1       0.1918064062E-04       6    3    1         0.5023225759E-03      0.1868799653E-02
          0                10           1             6    3     1       0.8532623656E-05       6    3    1         0.2234641046E-03      0.8349883861E-03

    ------------------------------------------------
       NWT REQUIRED           10 OUTER ITERATIONS 
       AND A TOTAL OF         16 INNER ITERATIONS.
    ------------------------------------------------

 NO OUTPUT CONTROL FOR STRESS PERIOD    2   TIME STEP   14
 
 SOLVING FOR HEAD 
                                                   Max.-Head-Change                         Max.-Flux-Residual
  Residual-Control   Outer-Iter.   Inner-Iter.     Column Row Layer    Maximum-Head-Change  Column Row Layer    Maximum-Flux-Residual          L2-NORM 
          0                 1           2             6    3     1       0.1233867610E-01       2    2    1         0.4719766046E+00      0.1951556404E+01
          0                 2           2             6    3     1       0.5495694171E-02       6    3    1         0.1438131748E+00      0.5888450385E+00
          0                 3           2             6    3     1       0.2446113620E-02       6    3    1         0.6403894646E-01      0.2385978095E+00
          0                 4           2             6    3     1       0.1088452668E-02       6    3    1         0.2850068875E-01      0.1048435574E+00
          0                 5           2             6    3     1       0.4842734355E-03       6    3    1         0.1268150348E-01      0.4671278052E-01
          0                 6           2             6    3     1       0.2154502438E-03       6    3    1         0.5642143936E-02      0.2085827562E-01
          0                 7           1             6    3     1       0.9584937846E-04       6    3    1         0.2510132681E-02      0.9317389732E-02
          0                 8           1             6    3     1       0.4264046947E-04       6    3    1         0.1116700479E-02      0.4162617562E-02
          0                 9           1             6    3     1       0.1896910996E-04       6    3    1         0.4967841462E-03      0.1859848678E-02
          0                10           1             6    3     1       0.8438499367E-05       6    3    1         0.2209995268E-03      0.8310419354E-03

    ------------------------------------------------
       NWT REQUIRED           10 OUTER ITERATIONS 
       AND A TOTAL OF         16 INNER ITERATIONS.
    ------------------------------------------------

 OUTPUT CONTROL FOR STRESS PERIOD    2   TIME STEP   15
    PRINT BUDGET
    PRINT HEAD FOR ALL LAYERS
    SAVE HEAD FOR ALL LAYERS
    SAVE BUDGET
 UBUDSV SAVING "         STORAGE" ON UNIT102 AT TIME STEP    15, STRESS PERIOD    2
 UBUDSV SAVING "   CONSTANT HEAD" ON UNIT102 AT TIME STEP    15, STRESS PERIOD    2
 UBUDSV SAVING "FLOW RIGHT FACE " ON UNIT102 AT TIME STEP    15, STRESS PERIOD    2
 UBUDSV SAVING "FLOW FRONT FACE " ON UNIT102 AT TIME STEP    15, STRESS PERIOD    2

  HEAD DEP BOUNDS   PERIOD    2   STEP    15
 BOUNDARY      1   LAYER   1   ROW    13   COL     1   RATE   -0.287669    
 BOUNDARY      2   LAYER   1   ROW    14   COL     9   RATE    0.291992    



 STREAM LISTING     PERIOD      2   STEP       15

 LAYER ROW COL. STREAM  RCH.  FLOW INTO     FLOW TO   FLOW OUT OF   OVRLND.     DIRECT     STREAM       STREAM     STREAM     STREAM   STREAMBED  STREAMBED
                SEG.NO.  NO.  STRM. RCH.    AQUIFER    STRM. RCH.    RUNOFF     PRECIP       ET          HEAD       DEPTH      WIDTH   CONDCTNC.   GRADIENT

   1    1    1     1     1    2.2000E+01  2.3088E-01   2.1769E+01  0.000E+00  0.000E+00  0.000E+00  1.09418E+03  1.132E+00  1.242E+01  5.588E-02  1.377E+00
   1    2    2     1     2    2.1769E+01  3.5689E-01   2.1412E+01  0.000E+00  0.000E+00  0.000E+00  1.08919E+03  1.127E+00  1.235E+01  8.648E-02  1.376E+00
   1    3    3     1     3    2.1412E+01  3.0372E-01   2.1109E+01  0.000E+00  0.000E+00  0.000E+00  1.08354E+03  1.121E+00  1.228E+01  7.369E-02  1.374E+00
   1    3    4     1     4    2.1109E+01  2.7914E-01   2.0829E+01  0.000E+00  0.000E+00  0.000E+00  1.07852E+03  1.117E+00  1.222E+01  6.781E-02  1.372E+00
   1    4    5     2     1    1.8829E+01  0.0000E+00   1.8829E+01  0.000E+00  0.000E+00  0.000E+00  1.07295E+03  1.019E+00  1.200E+01  0.000E+00  1.340E+00
   1    5    6     2     2    1.8829E+01  0.0000E+00   1.8829E+01  0.000E+00  0.000E+00  0.000E+00  1.06753E+03  1.019E+00  1.200E+01  0.000E+00  1.340E+00
   1    6    6     2     3    1.8829E+01  0.0000E+00   1.8829E+01  0.000E+00  0.000E+00  0.000E+00  1.06281E+03  1.019E+00  1.200E+01  0.000E+00  1.340E+00
   1    7    6     2     4    1.8829E+01  0.0000E+00   1.8829E+01  0.000E+00  0.000E+00  0.000E+00  1.05809E+03  1.019E+00  1.200E+01  0.000E+00  1.340E+00
   1    8    6     2     5    1.8829E+01  0.0000E+00   1.8829E+01  0.000E+00  0.000E+00  0.000E+00  1.05338E+03  1.019E+00  1.200E+01  0.000E+00  1.340E+00
   1    3    5     3     1    2.0000E+00  2.8252E-01   1.7175E+00  0.000E+00  0.000E+00  0.000E+00  1.07555E+03  1.909E+00  9.636E+00  7.227E-02  1.955E+00
   1    3    6     3     2    1.7175E+00  2.4905E-01   1.4684E+00  0.000E+00  0.000E+00  0.000E+00  1.07264E+03  1.727E+00  8.909E+00  6.682E-02  1.864E+00
   1    3    7     3     3    1.4684E+00  1.9718E-01   1.2712E+00  0.000E+00  0.000E+00  0.000E+00  1.06987E+03  1.555E+00  8.218E+00  5.547E-02  1.777E+00
   1    4    8     3     4    1.2712E+00  2.2567E-01   1.0456E+00  0.000E+00  0.000E+00  0.000E+00  1.06682E+03  1.364E+00  7.455E+00  6.709E-02  1.682E+00
   1    5    8     3     5    1.0456E+00  1.5790E-01   8.8768E-01  0.000E+00  0.000E+00  0.000E+00  1.06362E+03  1.164E+00  6.655E+00  4.991E-02  1.582E+00
   1    6    8     3     6    8.8768E-01  5.5980E-02   8.3170E-01  0.000E+00  0.000E+00  0.000E+00  1.06158E+03  1.036E+00  6.145E+00  1.844E-02  1.518E+00
   1    5   10     4     1    1.0000E+01  0.0000E+00   1.0000E+01  0.000E+00  0.000E+00  0.000E+00  1.07837E+03  6.385E-01  1.000E+01  0.000E+00  1.213E+00
   1    5    9     4     2    1.0000E+01  0.0000E+00   1.0000E+01  0.000E+00  0.000E+00  0.000E+00  1.07155E+03  6.385E-01  1.000E+01  0.000E+00  1.213E+00
   1    6    8     4     3    1.0000E+01  0.0000E+00   1.0000E+01  0.000E+00  0.000E+00  0.000E+00  1.06382E+03  6.385E-01  1.000E+01  0.000E+00  1.213E+00
   1    6    8     5     1    1.0832E+01  2.3262E-01   1.0599E+01  0.000E+00  0.000E+00  0.000E+00  1.05869E+03  6.881E-01  1.577E+01  6.307E-02  1.229E+00
   1    7    7     5     2    1.0599E+01  2.8607E-01   1.0313E+01  0.000E+00  0.000E+00  0.000E+00  1.05418E+03  6.822E-01  1.554E+01  7.769E-02  1.227E+00
   1    8    7     5     3    1.0313E+01  1.9716E-01   1.0116E+01  0.000E+00  0.000E+00  0.000E+00  1.04993E+03  6.766E-01  1.532E+01  5.363E-02  1.226E+00
   1    8    6     5     4    1.0116E+01  1.3929E-01   9.9766E+00  0.000E+00  0.000E+00  0.000E+00  1.04692E+03  6.727E-01  1.517E+01  3.792E-02  1.224E+00
   1    9    6     6     1    2.8806E+01  0.0000E+00   2.8806E+01  0.000E+00  0.000E+00  0.000E+00  1.04406E+03  1.329E+00  1.200E+01  0.000E+00  1.443E+00
   1   10    7     6     2    2.8806E+01  0.0000E+00   2.8806E+01  0.000E+00  0.000E+00  0.000E+00  1.03951E+03  1.329E+00  1.200E+01  0.000E+00  1.443E+00
   1   11    7     6     3    2.8806E+01  0.0000E+00   2.8806E+01  0.000E+00  0.000E+00  0.000E+00  1.03497E+03  1.329E+00  1.200E+01  0.000E+00  1.443E+00
   1   12    7     6     4    2.8806E+01  0.0000E+00   2.8806E+01  0.000E+00  0.000E+00  0.000E+00  1.03042E+03  1.329E+00  1.200E+01  0.000E+00  1.443E+00
   1   13    7     6     5    2.8806E+01  0.0000E+00   2.8806E+01  0.000E+00  0.000E+00  0.000E+00  1.02724E+03  1.329E+00  1.200E+01  0.000E+00  3.611E-01
   1   14    9     7     1    1.5000E+02  1.4274E+00   1.4857E+02  0.000E+00  0.000E+00  0.000E+00  1.03987E+03  2.287E+00  5.529E+01  5.593E-01  8.507E-01
   1   13    8     7     2    1.4857E+02  2.1389E+00   1.4643E+02  0.000E+00  0.000E+00  0.000E+00  1.03478E+03  2.278E+00  5.525E+01  6.147E-01  1.160E+00
   1   13    7     7     3    1.4643E+02  1.9714E+00   1.4446E+02  0.000E+00  0.000E+00  0.000E+00  1.02969E+03  2.267E+00  5.520E+01  5.583E-01  1.177E+00
   1   13    6     8     1    1.7327E+02  1.3879E+00   1.7188E+02  0.000E+00  0.000E+00  0.000E+00  1.02484E+03  2.969E+00  4.305E+01  4.387E-01  1.055E+00
   1   13    5     8     2    1.7188E+02  5.7816E-01   1.7130E+02  0.000E+00  0.000E+00  0.000E+00  1.01859E+03  2.963E+00  4.296E+01  4.377E-01  4.403E-01
   1   13    4     8     3    1.7130E+02 -1.2209E+00   1.7252E+02  0.000E+00  0.000E+00  0.000E+00  1.01234E+03  2.965E+00  4.299E+01  4.381E+00 -9.291E-02
   1   13    3     8     4    1.7252E+02 -3.0511E+00   1.7557E+02  0.000E+00  0.000E+00  0.000E+00  1.00610E+03  2.978E+00  4.319E+01  4.401E+00 -2.311E-01
   1   13    2     8     5    1.7557E+02 -2.3706E+00   1.7794E+02  0.000E+00  0.000E+00  0.000E+00  9.99871E+02  2.996E+00  4.344E+01  4.426E+00 -1.785E-01
   1   13    1     8     6    1.7794E+02 -1.8307E+00   1.7978E+02  0.000E+00  0.000E+00  0.000E+00  9.94884E+02  3.009E+00  4.363E+01  2.668E+00 -2.287E-01
   1    6    8     9     1    0.0000E+00  0.0000E+00   0.0000E+00  0.000E+00  0.000E+00  0.000E+00  1.07850E+03  0.000E+00  4.000E+00  0.000E+00  1.000E+00



 UBDSV3 SAVING "     NETRECHARGE" ON UNIT 100 AT TIME STEP    15, STRESS PERIOD   2
 UBDSV3 SAVING "    NETDISCHARGE" ON UNIT 101 AT TIME STEP    15, STRESS PERIOD   2
 UBDSV3 SAVING "           GW ET" ON UNIT  61 AT TIME STEP    15, STRESS PERIOD   2
 UBDSV3 SAVING "    UZF RECHARGE" ON UNIT  61 AT TIME STEP    15, STRESS PERIOD   2
 UBDSV3 SAVING " SURFACE LEAKAGE" ON UNIT  61 AT TIME STEP    15, STRESS PERIOD   2
 UBDSV3 SAVING "       HORT+DUNN" ON UNIT  61 AT TIME STEP    15, STRESS PERIOD   2
 UBDSV3 SAVING "  STORAGE CHANGE" ON UNIT  61 AT TIME STEP    15, STRESS PERIOD   2


UNSATURATED ZONE PACKAGE VOLUMETRIC BUDGET FOR  TIME STEP    15 STRESS PERIOD    2
  ------------------------------------------------------------------------------



     CUMULATIVE VOLUMES      L**3       RATES FOR THIS TIME STEP      L**3/T
     ------------------                 ------------------------

           IN:                                      IN:
           ---                                      ---
        INFILTRATION =     3340845.0000          INFILTRATION =           0.8475

          OUT:                                     OUT:
          ----                                     ----
              UZF ET =      381104.9047                UZF ET =           0.2901
        UZF RECHARGE =    41531064.6143          UZF RECHARGE =          29.4095

            IN - OUT =   -38571324.5189              IN - OUT =         -28.8521

          STORAGE:                                 STORAGE:
          --------                                 --------
      STORAGE CHANGE =   -38570555.6947        STORAGE CHANGE =         -28.8520

 PERCENT DISCREPANCY IS DIFFERENCE BETWEEN IN-OUT MINUS CHANGE IN STORAGE
 DIVIDED BY THE AVERAGE OF IN AND OUT TIMES 100

 PERCENT DISCREPANCY =          -0.00     PERCENT DISCREPANCY =          -0.00






1
              HEAD IN LAYER   1 AT END OF TIME STEP    15 IN STRESS PERIOD    2
  -----------------------------------------------------------------------------

           1       2       3       4       5       6       7       8       9      10
 ...................................................................................
   1  1020.88 1020.73 6999.00 6999.00 6999.00 6999.00 6999.00 6999.00 6999.00 6999.00
   2  1020.95 1020.65 1020.48 6999.00 6999.00 1021.42 1021.47 1021.47 6999.00 6999.00
   3  6999.00 1020.62 1020.48 1020.44 1020.71 1020.89 1021.02 1021.04 6999.00 6999.00
   4  1021.11 1020.68 1020.43 1020.29 1020.30 1020.36 1020.59 1020.95 1020.81 6999.00
   5  1021.03 1020.57 1020.33 1020.18 1020.21 1020.30 1020.44 1020.62 1020.64 1020.71
   6  1020.88 1020.38 1020.17 1020.04 1020.09 1020.23 1020.43 1020.67 1020.79 1021.02
   7  1020.72 1020.04 1019.89 1019.81 1019.91 1020.13 1020.45 1020.57 1020.98 6999.00
   8  6999.00 1019.41 1019.43 1019.47 1019.64 1019.96 1020.31 1020.72 1021.50 6999.00
   9  6999.00 1018.33 1018.60 1018.90 1019.21 1019.68 1020.14 1020.96 1022.36 6999.00
  10  6999.00 1016.54 1017.22 1018.04 1018.70 1019.54 1020.28 1021.58 1023.42 1024.09
  11  6999.00 1013.23 1014.60 1016.69 1018.10 1019.63 1021.00 1023.14 1025.63 6999.00
  12  1001.51 1007.14 1011.02 1014.54 1017.44 1020.20 1022.59 1026.61 1029.93 6999.00
  13   995.57 1000.41 1006.80 1012.62 1017.27 1021.68 1026.16 1031.30 1034.20 6999.00
  14  6999.00 1005.69 1008.69 1013.14 1017.53 1021.84 1026.91 1032.73 1037.32 6999.00
  15  6999.00 6999.00 1012.17 1014.76 1018.02 1020.93 6999.00 6999.00 6999.00 6999.00

 HEAD WILL BE SAVED ON UNIT   62 AT END OF TIME STEP   15, STRESS PERIOD    2
1
  VOLUMETRIC BUDGET FOR ENTIRE MODEL AT END OF TIME STEP   15, STRESS PERIOD   2
  ------------------------------------------------------------------------------

     CUMULATIVE VOLUMES      L**3       RATES FOR THIS TIME STEP      L**3/T
     ------------------                 ------------------------

           IN:                                      IN:
           ---                                      ---
             STORAGE =           0.0000               STORAGE =           0.0000
       CONSTANT HEAD =           0.0000         CONSTANT HEAD =           0.0000
               WELLS =           0.0000                 WELLS =           0.0000
     HEAD DEP BOUNDS =     1156941.8750       HEAD DEP BOUNDS =           0.2920
      STREAM LEAKAGE =    35973708.0000        STREAM LEAKAGE =          10.6978
        UZF RECHARGE =    41531068.0000          UZF RECHARGE =          29.4095
               GW ET =           0.0000                 GW ET =           0.0000
     SURFACE LEAKAGE =           0.0000       SURFACE LEAKAGE =           0.0000

            TOTAL IN =    78661712.0000              TOTAL IN =          40.3992

          OUT:                                     OUT:
          ----                                     ----
             STORAGE =    43371756.0000               STORAGE =          31.6355
       CONSTANT HEAD =           0.0000         CONSTANT HEAD =           0.0000
               WELLS =           0.0000                 WELLS =           0.0000
     HEAD DEP BOUNDS =     1116365.3750       HEAD DEP BOUNDS =           0.2877
      STREAM LEAKAGE =    30828698.0000        STREAM LEAKAGE =           8.4733
        UZF RECHARGE =           0.0000          UZF RECHARGE =           0.0000
               GW ET =     3341160.0000                 GW ET =       2.2967E-10
     SURFACE LEAKAGE =           0.0000       SURFACE LEAKAGE =           0.0000

           TOTAL OUT =    78657976.0000             TOTAL OUT =          40.3965

            IN - OUT =        3736.0000              IN - OUT =       2.7542E-03

 PERCENT DISCREPANCY =           0.00     PERCENT DISCREPANCY =           0.01






         TIME SUMMARY AT END OF TIME STEP   15 IN STRESS PERIOD    2
                    SECONDS     MINUTES      HOURS       DAYS        YEARS
                    -----------------------------------------------------------
   TIME STEP LENGTH  87600.      1460.0      24.333      1.0139     2.77588E-03
 STRESS PERIOD TIME 1.31400E+06  21900.      365.00      15.208     4.16381E-02
         TOTAL TIME 3.94200E+06  65700.      1095.0      45.625     0.12491    
1
 
 SOLVING FOR HEAD 
                                                   Max.-Head-Change                         Max.-Flux-Residual
  Residual-Control   Outer-Iter.   Inner-Iter.     Column Row Layer    Maximum-Head-Change  Column Row Layer    Maximum-Flux-Residual          L2-NORM 
          0                 1           2             6    3     1       0.1220341131E-01       2    2    1         0.4700167005E+00      0.1938937962E+01
          0                 2           2             6    3     1       0.5435566062E-02       6    3    1         0.1422379352E+00      0.5856553061E+00
          0                 3           2             6    3     1       0.2419361835E-02       6    3    1         0.6333847867E-01      0.2373752116E+00
          0                 4           2             6    3     1       0.1076547058E-02       6    3    1         0.2818900357E-01      0.1043154287E+00
          0                 5           2             6    3     1       0.4789746604E-03       6    3    1         0.1254278605E-01      0.4648057613E-01
          0                 6           2             6    3     1       0.2130920085E-03       6    3    1         0.5580405309E-02      0.2075596913E-01
          0                 7           1             6    3     1       0.9479990177E-04       6    3    1         0.2482655926E-02      0.9272291153E-02
          0                 8           1             6    3     1       0.4217345726E-04       6    3    1         0.1104472739E-02      0.4142735964E-02
          0                 9           1             6    3     1       0.1876130720E-04       6    3    1         0.4913429348E-03      0.1851080252E-02
          0                10           1             6    3     1       0.8346041318E-05       6    3    1         0.2185784237E-03      0.8271754322E-03

    ------------------------------------------------
       NWT REQUIRED           10 OUTER ITERATIONS 
       AND A TOTAL OF         16 INNER ITERATIONS.
    ------------------------------------------------

 NO OUTPUT CONTROL FOR STRESS PERIOD    2   TIME STEP   16
 
 SOLVING FOR HEAD 
                                                   Max.-Head-Change                         Max.-Flux-Residual
  Residual-Control   Outer-Iter.   Inner-Iter.     Column Row Layer    Maximum-Head-Change  Column Row Layer    Maximum-Flux-Residual          L2-NORM 
          0                 1           2             6    3     1       0.1207010723E-01       2    2    1         0.4681017271E+00      0.1927077121E+01
          0                 2           2             6    3     1       0.5376315196E-02       6    3    1         0.1406855489E+00      0.5825360485E+00
          0                 3           2             6    3     1       0.2392982398E-02       6    3    1         0.6264824328E-01      0.2361633847E+00
          0                 4           2             6    3     1       0.1064793953E-02       6    3    1         0.2788160831E-01      0.1037893678E+00
          0                 5           2             6    3     1       0.4737361872E-03       6    3    1         0.1240581575E-01      0.4624806315E-01
          0                 6           2             6    3     1       0.2107565024E-03       6    3    1         0.5519352438E-02      0.2065293059E-01
          0                 7           1             6    3     1       0.9375839036E-04       6    3    1         0.2455434922E-02      0.9226630964E-02
          0                 8           1             6    3     1       0.4170889413E-04       6    3    1         0.1092333089E-02      0.4122498543E-02
          0                 9           1             6    3     1       0.1855404568E-04       6    3    1         0.4859278536E-03      0.1842111169E-02
          0                10           1             6    3     1       0.8253554256E-05       6    3    1         0.2161624332E-03      0.8232006676E-03

    ------------------------------------------------
       NWT REQUIRED           10 OUTER ITERATIONS 
       AND A TOTAL OF         16 INNER ITERATIONS.
    ------------------------------------------------

 NO OUTPUT CONTROL FOR STRESS PERIOD    2   TIME STEP   17
 
 SOLVING FOR HEAD 
                                                   Max.-Head-Change                         Max.-Flux-Residual
  Residual-Control   Outer-Iter.   Inner-Iter.     Column Row Layer    Maximum-Head-Change  Column Row Layer    Maximum-Flux-Residual          L2-NORM 
          0                 1           2             6    3     1       0.1193879951E-01       2    2    1         0.4662302312E+00      0.1915609872E+01
          0                 2           2             6    3     1       0.5317909613E-02       6    3    1         0.1391562800E+00      0.5795072158E+00
          0                 3           2             6    3     1       0.2366993642E-02       6    3    1         0.6196775777E-01      0.2349908447E+00
          0                 4           2             6    3     1       0.1053228001E-02       6    3    1         0.2757881287E-01      0.1032818418E+00
          0                 5           2             6    3     1       0.4685886688E-03       6    3    1         0.1227105606E-01      0.4602484255E-01
          0                 6           2             6    3     1       0.2084656386E-03       6    3    1         0.5459376383E-02      0.2055456298E-01
          0                 7           1             6    3     1       0.9273892537E-04       6    3    1         0.2428743265E-02      0.9183258699E-02
          0                 8           1             6    3     1       0.4125525260E-04       6    3    1         0.1080455096E-02      0.4103373733E-02
          0                 9           1             6    3     1       0.1835220044E-04       6    3    1         0.4806424649E-03      0.1833676212E-02
          0                10           1             6    3     1       0.8163751511E-05       6    3    1         0.2138107587E-03      0.8194799470E-03

    ------------------------------------------------
       NWT REQUIRED           10 OUTER ITERATIONS 
       AND A TOTAL OF         16 INNER ITERATIONS.
    ------------------------------------------------

 NO OUTPUT CONTROL FOR STRESS PERIOD    2   TIME STEP   18
 
 SOLVING FOR HEAD 
                                                   Max.-Head-Change                         Max.-Flux-Residual
  Residual-Control   Outer-Iter.   Inner-Iter.     Column Row Layer    Maximum-Head-Change  Column Row Layer    Maximum-Flux-Residual          L2-NORM 
          0                 1           2             6    3     1       0.1180961974E-01       2    2    1         0.4644029360E+00      0.1906297381E+01
          0                 2           2             6    3     1       0.5260470839E-02       6    3    1         0.1376518043E+00      0.5766874172E+00
          0                 3           2             6    3     1       0.2341432931E-02       6    3    1         0.6129858874E-01      0.2338476240E+00
          0                 4           2             6    3     1       0.1041850351E-02       6    3    1         0.2728099372E-01      0.1027836667E+00
          0                 5           2             6    3     1       0.4635240048E-03       6    3    1         0.1213848568E-01      0.4580551644E-01
          0                 6           2             6    3     1       0.2062112335E-03       6    3    1         0.5400363675E-02      0.2045786651E-01
          0                 7           1             6    3     1       0.9173550337E-04       6    3    1         0.2402475513E-02      0.9140620711E-02
          0                 8           1             6    3     1       0.4080867070E-04       6    3    1         0.1068763631E-02      0.4084568439E-02
          0                 9           1             6    3     1       0.1815346083E-04       6    3    1         0.4754391394E-03      0.1825382035E-02
          0                10           1             6    3     1       0.8075314747E-05       6    3    1         0.2114951891E-03      0.8158210677E-03

    ------------------------------------------------
       NWT REQUIRED           10 OUTER ITERATIONS 
       AND A TOTAL OF         16 INNER ITERATIONS.
    ------------------------------------------------

 NO OUTPUT CONTROL FOR STRESS PERIOD    2   TIME STEP   19
 
 SOLVING FOR HEAD 
                                                   Max.-Head-Change                         Max.-Flux-Residual
  Residual-Control   Outer-Iter.   Inner-Iter.     Column Row Layer    Maximum-Head-Change  Column Row Layer    Maximum-Flux-Residual          L2-NORM 
          0                 1           2             6    3     1       0.1168238032E-01       2    2    1         0.4626163765E+00      0.1898057686E+01
          0                 2           2             6    3     1       0.5203900432E-02       6    3    1         0.1361699469E+00      0.5741100133E+00
          0                 3           2             6    3     1       0.2316261477E-02       6    3    1         0.6063954896E-01      0.2327459000E+00
          0                 4           2             6    3     1       0.1030647259E-02       6    3    1         0.2698771610E-01      0.1022974770E+00
          0                 5           2             6    3     1       0.4585376145E-03       6    3    1         0.1200795200E-01      0.4559095443E-01
          0                 6           2             6    3     1       0.2039919190E-03       6    3    1         0.5342264220E-02      0.2036322716E-01
          0                 7           1             6    3     1       0.9074780773E-04       6    3    1         0.2376617159E-02      0.9098870459E-02
          0                 8           1             6    3     1       0.4036913443E-04       6    3    1         0.1057255646E-02      0.4066154698E-02
          0                 9           1             6    3     1       0.1795787774E-04       6    3    1         0.4703180323E-03      0.1817256974E-02
          0                10           1             7    3     1       0.7991896961E-05       6    3    1         0.2092164472E-03      0.8122369357E-03

    ------------------------------------------------
       NWT REQUIRED           10 OUTER ITERATIONS 
       AND A TOTAL OF         16 INNER ITERATIONS.
    ------------------------------------------------

 NO OUTPUT CONTROL FOR STRESS PERIOD    2   TIME STEP   20
 
 SOLVING FOR HEAD 
                                                   Max.-Head-Change                         Max.-Flux-Residual
  Residual-Control   Outer-Iter.   Inner-Iter.     Column Row Layer    Maximum-Head-Change  Column Row Layer    Maximum-Flux-Residual          L2-NORM 
          0                 1           2             6    3     1       0.1155689592E-01       2    2    1         0.4608692338E+00      0.1890691799E+01
          0                 2           2             6    3     1       0.5148117040E-02       6    3    1         0.1347085551E+00      0.5715785990E+00
          0                 3           2             6    3     1       0.2291443503E-02       6    3    1         0.5998969285E-01      0.2316646662E+00
          0                 4           2             6    3     1       0.1019602979E-02       6    3    1         0.2669856406E-01      0.1018214831E+00
          0                 5           2             6    3     1       0.4536225658E-03       6    3    1         0.1187927191E-01      0.4538098161E-01
          0                 6           2             6    3     1       0.2018046428E-03       6    3    1         0.5284997403E-02      0.2027059272E-01
          0                 7           1             6    3     1       0.8977449548E-04       6    3    1         0.2351132710E-02      0.9058004475E-02
          0                 8           1             6    3     1       0.3993605328E-04       6    3    1         0.1045915500E-02      0.4048122711E-02
          0                 9           1             7    3     1       0.1776765104E-04       6    3    1         0.4652722275E-03      0.1809299346E-02
          0                10           1             7    3     1       0.7934876396E-05       7    3    1         0.2071491145E-03      0.8087241044E-03

    ------------------------------------------------
       NWT REQUIRED           10 OUTER ITERATIONS 
       AND A TOTAL OF         16 INNER ITERATIONS.
    ------------------------------------------------

 NO OUTPUT CONTROL FOR STRESS PERIOD    2   TIME STEP   21
 
 SOLVING FOR HEAD 
                                                   Max.-Head-Change                         Max.-Flux-Residual
  Residual-Control   Outer-Iter.   Inner-Iter.     Column Row Layer    Maximum-Head-Change  Column Row Layer    Maximum-Flux-Residual          L2-NORM 
          0                 1           2             6    3     1       0.1143364715E-01       2    2    1         0.4591623968E+00      0.1884696720E+01
          0                 2           2             6    3     1       0.5093330983E-02       6    3    1         0.1332732100E+00      0.5692522231E+00
          0                 3           2             6    3     1       0.2267071119E-02       6    3    1         0.5935146342E-01      0.2306190293E+00
          0                 4           2             6    3     1       0.1008757868E-02       6    3    1         0.2641460768E-01      0.1013567474E+00
          0                 5           2             6    3     1       0.4487965422E-03       6    3    1         0.1175291427E-01      0.4517562917E-01
          0                 6           2             6    3     1       0.1996571546E-03       6    3    1         0.5228768677E-02      0.2017996634E-01
          0                 7           1             6    3     1       0.8881896212E-04       6    3    1         0.2326112197E-02      0.9018012042E-02
          0                 8           1             6    3     1       0.3951091478E-04       6    3    1         0.1034782657E-02      0.4030469804E-02
          0                 9           1             7    3     1       0.1764124004E-04       7    3    1         0.4605338848E-03      0.1801507951E-02
          0                10           1             7    3     1       0.7878694452E-05       7    3    1         0.2056766457E-03      0.8052841709E-03

    ------------------------------------------------
       NWT REQUIRED           10 OUTER ITERATIONS 
       AND A TOTAL OF         16 INNER ITERATIONS.
    ------------------------------------------------

 NO OUTPUT CONTROL FOR STRESS PERIOD    2   TIME STEP   22
 
 SOLVING FOR HEAD 
                                                   Max.-Head-Change                         Max.-Flux-Residual
  Residual-Control   Outer-Iter.   Inner-Iter.     Column Row Layer    Maximum-Head-Change  Column Row Layer    Maximum-Flux-Residual          L2-NORM 
          0                 1           2             6    3     1       0.1131210316E-01       2    2    1         0.4574925255E+00      0.1878980613E+01
          0                 2           2             6    3     1       0.5039308536E-02       6    3    1         0.1318577400E+00      0.5669701915E+00
          0                 3           2             6    3     1       0.2243041345E-02       6    3    1         0.5872214272E-01      0.2295947318E+00
          0                 4           2             6    3     1       0.9980665349E-03       6    3    1         0.2613464926E-01      0.1009018163E+00
          0                 5           2             6    3     1       0.4440395349E-03       6    3    1         0.1162835115E-01      0.4497461371E-01
          0                 6           2             6    3     1       0.1975406331E-03       6    3    1         0.5173345323E-02      0.2009122783E-01
          0                 7           1             6    3     1       0.8787731893E-04       6    3    1         0.2301453030E-02      0.8978844704E-02
          0                 8           1             7    3     1       0.3922097255E-04       7    3    1         0.1023859118E-02      0.4013179160E-02
          0                 9           1             7    3     1       0.1751686144E-04       7    3    1         0.4572740959E-03      0.1793874780E-02
          0                10           1             7    3     1       0.7823410532E-05       7    3    1         0.2042278080E-03      0.8019132470E-03

    ------------------------------------------------
       NWT REQUIRED           10 OUTER ITERATIONS 
       AND A TOTAL OF         16 INNER ITERATIONS.
    ------------------------------------------------

 NO OUTPUT CONTROL FOR STRESS PERIOD    2   TIME STEP   23
 
 SOLVING FOR HEAD 
                                                   Max.-Head-Change                         Max.-Flux-Residual
  Residual-Control   Outer-Iter.   Inner-Iter.     Column Row Layer    Maximum-Head-Change  Column Row Layer    Maximum-Flux-Residual          L2-NORM 
          0                 1           2             6    3     1       0.1119257881E-01       2    2    1         0.4558584707E+00      0.1873836130E+01
          0                 2           2             6    3     1       0.4986188099E-02       6    3    1         0.1304658057E+00      0.5647927955E+00
          0                 3           2             6    3     1       0.2219415001E-02       6    3    1         0.5810333961E-01      0.2285960475E+00
          0                 4           2             6    3     1       0.9875557045E-03       6    3    1         0.2585939575E-01      0.1004566013E+00
          0                 5           2             6    3     1       0.4393632868E-03       6    3    1         0.1150589320E-01      0.4477772819E-01
          0                 6           2             6    3     1       0.1954602380E-03       6    3    1         0.5118863832E-02      0.2000429438E-01
          0                 7           1             7    3     1       0.8719826895E-04       6    3    1         0.2277215185E-02      0.8940464735E-02
          0                 8           1             7    3     1       0.3894564519E-04       7    3    1         0.1016643144E-02      0.3996233084E-02
          0                 9           1             7    3     1       0.1739448536E-04       7    3    1         0.4540669337E-03      0.1786391610E-02
          0                10           1             7    3     1       0.7769014757E-05       7    3    1         0.2028022946E-03      0.7986083485E-03

    ------------------------------------------------
       NWT REQUIRED           10 OUTER ITERATIONS 
       AND A TOTAL OF         16 INNER ITERATIONS.
    ------------------------------------------------

 NO OUTPUT CONTROL FOR STRESS PERIOD    2   TIME STEP   24
 
 SOLVING FOR HEAD 
                                                   Max.-Head-Change                         Max.-Flux-Residual
  Residual-Control   Outer-Iter.   Inner-Iter.     Column Row Layer    Maximum-Head-Change  Column Row Layer    Maximum-Flux-Residual          L2-NORM 
          0                 1           2             6    3     1       0.1107504508E-01       2    2    1         0.4542612128E+00      0.1869804846E+01
          0                 2           2             6    3     1       0.4933956019E-02       6    3    1         0.1290970656E+00      0.5627470633E+00
          0                 3           2             6    3     1       0.2196185667E-02       6    3    1         0.5749489339E-01      0.2276250558E+00
          0                 4           2             6    3     1       0.9772223689E-03       6    3    1         0.2558877168E-01      0.1000216220E+00
          0                 5           2             6    3     1       0.4347663931E-03       6    3    1         0.1138550507E-01      0.4458578126E-01
          0                 6           2             7    3     1       0.1938611061E-03       6    3    1         0.5065307711E-02      0.1991977976E-01
          0                 7           1             7    3     1       0.8658750303E-04       7    3    1         0.2260236380E-02      0.8903262669E-02
          0                 8           1             7    3     1       0.3867418141E-04       7    3    1         0.1009528645E-02      0.3979856712E-02
          0                 9           1             7    3     1       0.1727382229E-04       7    3    1         0.4509047517E-03      0.1779181882E-02
          0                10           1             7    3     1       0.7715378194E-05       7    3    1         0.2013967168E-03      0.7954338246E-03

    ------------------------------------------------
       NWT REQUIRED           10 OUTER ITERATIONS 
       AND A TOTAL OF         16 INNER ITERATIONS.
    ------------------------------------------------

 NO OUTPUT CONTROL FOR STRESS PERIOD    2   TIME STEP   25
 
 SOLVING FOR HEAD 
                                                   Max.-Head-Change                         Max.-Flux-Residual
  Residual-Control   Outer-Iter.   Inner-Iter.     Column Row Layer    Maximum-Head-Change  Column Row Layer    Maximum-Flux-Residual          L2-NORM 
          0                 1           2             6    3     1       0.1095930644E-01       2    2    1         0.4526975698E+00      0.1865477790E+01
          0                 2           2             6    3     1       0.4882525990E-02       6    3    1         0.1277492454E+00      0.5606965819E+00
          0                 3           2             6    3     1       0.2173315253E-02       6    3    1         0.5689579995E-01      0.2266710921E+00
          0                 4           2             6    3     1       0.9670497288E-03       6    3    1         0.2532233389E-01      0.9959616861E-01
          0                 5           2             7    3     1       0.4310006773E-03       6    3    1         0.1126699134E-01      0.4439737108E-01
          0                 6           2             7    3     1       0.1925123875E-03       7    3    1         0.5025092451E-02      0.1983647311E-01
          0                 7           1             7    3     1       0.8598860751E-04       7    3    1         0.2244528249E-02      0.8866437812E-02
          0                 8           1             7    3     1       0.3840826072E-04       7    3    1         0.1002553572E-02      0.3963578728E-02
          0                 9           1             7    3     1       0.1715575600E-04       7    3    1         0.4478077283E-03      0.1771985836E-02
          0                10           1             7    3     1       0.7662961047E-05       7    3    1         0.2000216870E-03      0.7922528940E-03

    ------------------------------------------------
       NWT REQUIRED           10 OUTER ITERATIONS 
       AND A TOTAL OF         16 INNER ITERATIONS.
    ------------------------------------------------

 NO OUTPUT CONTROL FOR STRESS PERIOD    2   TIME STEP   26
 
 SOLVING FOR HEAD 
                                                   Max.-Head-Change                         Max.-Flux-Residual
  Residual-Control   Outer-Iter.   Inner-Iter.     Column Row Layer    Maximum-Head-Change  Column Row Layer    Maximum-Flux-Residual          L2-NORM 
          0                 1           2             6    3     1       0.1084533758E-01       2    2    1         0.4511665157E+00      0.1861413314E+01
          0                 2           2             6    3     1       0.4831885936E-02       6    3    1         0.1264220457E+00      0.5586393982E+00
          0                 3           2             6    3     1       0.2150798016E-02       6    3    1         0.5630591692E-01      0.2257315390E+00
          0                 4           2             7    3     1       0.9581904573E-03       6    3    1         0.2506001470E-01      0.9917832533E-01
          0                 5           2             7    3     1       0.4280027075E-03       7    3    1         0.1117173145E-01      0.4421265889E-01
          0                 6           2             7    3     1       0.1911800411E-03       7    3    1         0.4990171362E-02      0.1975488446E-01
          0                 7           1             7    3     1       0.8539645386E-04       7    3    1         0.2229008574E-02      0.8830398736E-02
          0                 8           1             7    3     1       0.3814506487E-04       7    3    1         0.9956558560E-03      0.3947658517E-02
          0                 9           1             7    3     1       0.1703876543E-04       7    3    1         0.4447418464E-03      0.1764952083E-02
          0                10           1             7    3     1       0.7610955457E-05       7    3    1         0.1986588865E-03      0.7891449832E-03

    ------------------------------------------------
       NWT REQUIRED           10 OUTER ITERATIONS 
       AND A TOTAL OF         16 INNER ITERATIONS.
    ------------------------------------------------

 NO OUTPUT CONTROL FOR STRESS PERIOD    2   TIME STEP   27
 
 SOLVING FOR HEAD 
                                                   Max.-Head-Change                         Max.-Flux-Residual
  Residual-Control   Outer-Iter.   Inner-Iter.     Column Row Layer    Maximum-Head-Change  Column Row Layer    Maximum-Flux-Residual          L2-NORM 
          0                 1           2             6    3     1       0.1073344604E-01       2    2    1         0.4484791481E+00      0.1857795776E+01
          0                 2           2             6    3     1       0.4782172349E-02       6    3    1         0.1251190492E+00      0.5567961773E+00
          0                 3           2             7    3     1       0.2130252780E-02       6    3    1         0.5572683369E-01      0.2248258471E+00
          0                 4           2             7    3     1       0.9515681953E-03       7    3    1         0.2483717938E-01      0.9877042728E-01
          0                 5           2             7    3     1       0.4250599033E-03       7    3    1         0.1109459486E-01      0.4403194008E-01
          0                 6           2             7    3     1       0.1898722326E-03       7    3    1         0.4955892957E-02      0.1967502025E-01
          0                 7           1             7    3     1       0.8481521518E-04       7    3    1         0.2213774762E-02      0.8795115759E-02
          0                 8           1             7    3     1       0.3788672455E-04       7    3    1         0.9888853044E-03      0.3932068314E-02
          0                 9           1             7    3     1       0.1692393507E-04       7    3    1         0.4417325408E-03      0.1758063249E-02
          0                10           1             7    3     1       0.7559911545E-05       7    3    1         0.1973212615E-03      0.7861007362E-03

    ------------------------------------------------
       NWT REQUIRED           10 OUTER ITERATIONS 
       AND A TOTAL OF         16 INNER ITERATIONS.
    ------------------------------------------------

 NO OUTPUT CONTROL FOR STRESS PERIOD    2   TIME STEP   28
 
 SOLVING FOR HEAD 
                                                   Max.-Head-Change                         Max.-Flux-Residual
  Residual-Control   Outer-Iter.   Inner-Iter.     Column Row Layer    Maximum-Head-Change  Column Row Layer    Maximum-Flux-Residual          L2-NORM 
          0                 1           2             6    3     1       0.1062326626E-01       2    2    1         0.4457101526E+00      0.1854615229E+01
          0                 2           2             7    3     1       0.4735893601E-02       6    3    1         0.1238360004E+00      0.5549577839E+00
          0                 3           2             7    3     1       0.2115554360E-02       7    3    1         0.5521730734E-01      0.2239360948E+00
          0                 4           2             7    3     1       0.9450365481E-03       7    3    1         0.2466597129E-01      0.9837068708E-01
          0                 5           2             7    3     1       0.4221572021E-03       7    3    1         0.1101851294E-01      0.4385486067E-01
          0                 6           2             7    3     1       0.1885821746E-03       7    3    1         0.4922081329E-02      0.1959675335E-01
          0                 7           1             7    3     1       0.8424183411E-04       7    3    1         0.2198747560E-02      0.8760530066E-02
          0                 8           1             7    3     1       0.3763186315E-04       7    3    1         0.9822062200E-03      0.3916785582E-02
          0                 9           1             7    3     1       0.1681064590E-04       7    3    1         0.4387637329E-03      0.1751308905E-02
          0                10           1             7    3     1       0.7509549310E-05       7    3    1         0.1960015596E-03      0.7831150534E-03

    ------------------------------------------------
       NWT REQUIRED           10 OUTER ITERATIONS 
       AND A TOTAL OF         16 INNER ITERATIONS.
    ------------------------------------------------

 NO OUTPUT CONTROL FOR STRESS PERIOD    2   TIME STEP   29
 
 SOLVING FOR HEAD 
                                                   Max.-Head-Change                         Max.-Flux-Residual
  Residual-Control   Outer-Iter.   Inner-Iter.     Column Row Layer    Maximum-Head-Change  Column Row Layer    Maximum-Flux-Residual          L2-NORM 
          0                 1           2             7    3     1       0.1052848944E-01       2    2    1         0.4430070688E+00      0.1851610784E+01
          0                 2           2             7    3     1       0.4703265082E-02       7    3    1         0.1227553749E+00      0.5531592983E+00
          0                 3           2             7    3     1       0.2101054968E-02       7    3    1         0.5483724816E-01      0.2230651133E+00
          0                 4           2             7    3     1       0.9385929465E-03       7    3    1         0.2449707955E-01      0.9797951550E-01
          0                 5           2             7    3     1       0.4192934560E-03       7    3    1         0.1094345576E-01      0.4368164317E-01
          0                 6           2             7    3     1       0.1873093539E-03       7    3    1         0.4888723092E-02      0.1952022883E-01
          0                 7           1             7    3     1       0.8367608131E-04       7    3    1         0.2183920985E-02      0.8726731774E-02
          0                 8           1             7    3     1       0.3738037824E-04       7    3    1         0.9756159229E-03      0.3901857766E-02
          0                 9           1             7    3     1       0.1669885039E-04       7    3    1         0.4358342221E-03      0.1744715453E-02
          0                10           1             7    3     1       0.7459848995E-05       7    3    1         0.1946992666E-03      0.7802032861E-03

    ------------------------------------------------
       NWT REQUIRED           10 OUTER ITERATIONS 
       AND A TOTAL OF         16 INNER ITERATIONS.
    ------------------------------------------------

 NO OUTPUT CONTROL FOR STRESS PERIOD    2   TIME STEP   30



 STREAM LISTING     PERIOD      2   STEP       30

 LAYER ROW COL. STREAM  RCH.  FLOW INTO     FLOW TO   FLOW OUT OF   OVRLND.     DIRECT     STREAM       STREAM     STREAM     STREAM   STREAMBED  STREAMBED
                SEG.NO.  NO.  STRM. RCH.    AQUIFER    STRM. RCH.    RUNOFF     PRECIP       ET          HEAD       DEPTH      WIDTH   CONDCTNC.   GRADIENT

   1    1    1     1     1    2.2000E+01  2.3088E-01   2.1769E+01  0.000E+00  0.000E+00  0.000E+00  1.09418E+03  1.132E+00  1.242E+01  5.588E-02  1.377E+00
   1    2    2     1     2    2.1769E+01  3.5689E-01   2.1412E+01  0.000E+00  0.000E+00  0.000E+00  1.08919E+03  1.127E+00  1.235E+01  8.648E-02  1.376E+00
   1    3    3     1     3    2.1412E+01  3.0372E-01   2.1109E+01  0.000E+00  0.000E+00  0.000E+00  1.08354E+03  1.121E+00  1.228E+01  7.369E-02  1.374E+00
   1    3    4     1     4    2.1109E+01  2.7914E-01   2.0829E+01  0.000E+00  0.000E+00  0.000E+00  1.07852E+03  1.117E+00  1.222E+01  6.781E-02  1.372E+00
   1    4    5     2     1    1.8829E+01  0.0000E+00   1.8829E+01  0.000E+00  0.000E+00  0.000E+00  1.07295E+03  1.019E+00  1.200E+01  0.000E+00  1.340E+00
   1    5    6     2     2    1.8829E+01  0.0000E+00   1.8829E+01  0.000E+00  0.000E+00  0.000E+00  1.06753E+03  1.019E+00  1.200E+01  0.000E+00  1.340E+00
   1    6    6     2     3    1.8829E+01  0.0000E+00   1.8829E+01  0.000E+00  0.000E+00  0.000E+00  1.06281E+03  1.019E+00  1.200E+01  0.000E+00  1.340E+00
   1    7    6     2     4    1.8829E+01  0.0000E+00   1.8829E+01  0.000E+00  0.000E+00  0.000E+00  1.05809E+03  1.019E+00  1.200E+01  0.000E+00  1.340E+00
   1    8    6     2     5    1.8829E+01  0.0000E+00   1.8829E+01  0.000E+00  0.000E+00  0.000E+00  1.05338E+03  1.019E+00  1.200E+01  0.000E+00  1.340E+00
   1    3    5     3     1    2.0000E+00  2.8252E-01   1.7175E+00  0.000E+00  0.000E+00  0.000E+00  1.07555E+03  1.909E+00  9.636E+00  7.227E-02  1.955E+00
   1    3    6     3     2    1.7175E+00  2.4905E-01   1.4684E+00  0.000E+00  0.000E+00  0.000E+00  1.07264E+03  1.727E+00  8.909E+00  6.682E-02  1.864E+00
   1    3    7     3     3    1.4684E+00  1.9718E-01   1.2712E+00  0.000E+00  0.000E+00  0.000E+00  1.06987E+03  1.555E+00  8.218E+00  5.547E-02  1.777E+00
   1    4    8     3     4    1.2712E+00  2.2567E-01   1.0456E+00  0.000E+00  0.000E+00  0.000E+00  1.06682E+03  1.364E+00  7.455E+00  6.709E-02  1.682E+00
   1    5    8     3     5    1.0456E+00  1.5790E-01   8.8768E-01  0.000E+00  0.000E+00  0.000E+00  1.06362E+03  1.164E+00  6.655E+00  4.991E-02  1.582E+00
   1    6    8     3     6    8.8768E-01  5.5980E-02   8.3170E-01  0.000E+00  0.000E+00  0.000E+00  1.06158E+03  1.036E+00  6.145E+00  1.844E-02  1.518E+00
   1    5   10     4     1    1.0000E+01  0.0000E+00   1.0000E+01  0.000E+00  0.000E+00  0.000E+00  1.07837E+03  6.385E-01  1.000E+01  0.000E+00  1.213E+00
   1    5    9     4     2    1.0000E+01  0.0000E+00   1.0000E+01  0.000E+00  0.000E+00  0.000E+00  1.07155E+03  6.385E-01  1.000E+01  0.000E+00  1.213E+00
   1    6    8     4     3    1.0000E+01  0.0000E+00   1.0000E+01  0.000E+00  0.000E+00  0.000E+00  1.06382E+03  6.385E-01  1.000E+01  0.000E+00  1.213E+00
   1    6    8     5     1    1.0832E+01  2.3262E-01   1.0599E+01  0.000E+00  0.000E+00  0.000E+00  1.05869E+03  6.881E-01  1.577E+01  6.307E-02  1.229E+00
   1    7    7     5     2    1.0599E+01  2.8607E-01   1.0313E+01  0.000E+00  0.000E+00  0.000E+00  1.05418E+03  6.822E-01  1.554E+01  7.769E-02  1.227E+00
   1    8    7     5     3    1.0313E+01  1.9716E-01   1.0116E+01  0.000E+00  0.000E+00  0.000E+00  1.04993E+03  6.766E-01  1.532E+01  5.363E-02  1.226E+00
   1    8    6     5     4    1.0116E+01  1.3929E-01   9.9766E+00  0.000E+00  0.000E+00  0.000E+00  1.04692E+03  6.727E-01  1.517E+01  3.792E-02  1.224E+00
   1    9    6     6     1    2.8806E+01  0.0000E+00   2.8806E+01  0.000E+00  0.000E+00  0.000E+00  1.04406E+03  1.329E+00  1.200E+01  0.000E+00  1.443E+00
   1   10    7     6     2    2.8806E+01  0.0000E+00   2.8806E+01  0.000E+00  0.000E+00  0.000E+00  1.03951E+03  1.329E+00  1.200E+01  0.000E+00  1.443E+00
   1   11    7     6     3    2.8806E+01  0.0000E+00   2.8806E+01  0.000E+00  0.000E+00  0.000E+00  1.03497E+03  1.329E+00  1.200E+01  0.000E+00  1.443E+00
   1   12    7     6     4    2.8806E+01  0.0000E+00   2.8806E+01  0.000E+00  0.000E+00  0.000E+00  1.03042E+03  1.329E+00  1.200E+01  0.000E+00  1.443E+00
   1   13    7     6     5    2.8806E+01  0.0000E+00   2.8806E+01  0.000E+00  0.000E+00  0.000E+00  1.02724E+03  1.329E+00  1.200E+01  0.000E+00  3.441E-01
   1   14    9     7     1    1.5000E+02  1.4033E+00   1.4860E+02  0.000E+00  0.000E+00  0.000E+00  1.03987E+03  2.288E+00  5.529E+01  5.593E-01  8.364E-01
   1   13    8     7     2    1.4860E+02  2.1095E+00   1.4649E+02  0.000E+00  0.000E+00  0.000E+00  1.03478E+03  2.278E+00  5.525E+01  6.147E-01  1.144E+00
   1   13    7     7     3    1.4649E+02  1.9432E+00   1.4454E+02  0.000E+00  0.000E+00  0.000E+00  1.02969E+03  2.267E+00  5.520E+01  5.583E-01  1.160E+00
   1   13    6     8     1    1.7335E+02  1.3553E+00   1.7199E+02  0.000E+00  0.000E+00  0.000E+00  1.02484E+03  2.970E+00  4.306E+01  4.388E-01  1.030E+00
   1   13    5     8     2    1.7199E+02  5.3833E-01   1.7146E+02  0.000E+00  0.000E+00  0.000E+00  1.01859E+03  2.963E+00  4.297E+01  4.379E-01  4.098E-01
   1   13    4     8     3    1.7146E+02 -1.3574E+00   1.7281E+02  0.000E+00  0.000E+00  0.000E+00  1.01234E+03  2.966E+00  4.301E+01  4.383E+00 -1.032E-01
   1   13    3     8     4    1.7281E+02 -3.1584E+00   1.7597E+02  0.000E+00  0.000E+00  0.000E+00  1.00611E+03  2.981E+00  4.322E+01  4.404E+00 -2.391E-01
   1   13    2     8     5    1.7597E+02 -2.5332E+00   1.7851E+02  0.000E+00  0.000E+00  0.000E+00  9.99874E+02  2.999E+00  4.348E+01  4.431E+00 -1.906E-01
   1   13    1     8     6    1.7851E+02 -1.9548E+00   1.8046E+02  0.000E+00  0.000E+00  0.000E+00  9.94888E+02  3.013E+00  4.369E+01  2.671E+00 -2.439E-01
   1    6    8     9     1    0.0000E+00  0.0000E+00   0.0000E+00  0.000E+00  0.000E+00  0.000E+00  1.07850E+03  0.000E+00  4.000E+00  0.000E+00  1.000E+00





UNSATURATED ZONE PACKAGE VOLUMETRIC BUDGET FOR  TIME STEP    30 STRESS PERIOD    2
  ------------------------------------------------------------------------------



     CUMULATIVE VOLUMES      L**3       RATES FOR THIS TIME STEP      L**3/T
     ------------------                 ------------------------

           IN:                                      IN:
           ---                                      ---
        INFILTRATION =     4454460.0000          INFILTRATION =           0.8475

          OUT:                                     OUT:
          ----                                     ----
              UZF ET =      762210.4704                UZF ET =           0.2900
        UZF RECHARGE =    79491551.4531          UZF RECHARGE =          28.5534

            IN - OUT =   -75799301.9235              IN - OUT =         -27.9959

          STORAGE:                                 STORAGE:
          --------                                 --------
      STORAGE CHANGE =   -75798497.2450        STORAGE CHANGE =         -27.9959

 PERCENT DISCREPANCY IS DIFFERENCE BETWEEN IN-OUT MINUS CHANGE IN STORAGE
 DIVIDED BY THE AVERAGE OF IN AND OUT TIMES 100

 PERCENT DISCREPANCY =          -0.00     PERCENT DISCREPANCY =           0.00






1
  VOLUMETRIC BUDGET FOR ENTIRE MODEL AT END OF TIME STEP   30, STRESS PERIOD   2
  ------------------------------------------------------------------------------

     CUMULATIVE VOLUMES      L**3       RATES FOR THIS TIME STEP      L**3/T
     ------------------                 ------------------------

           IN:                                      IN:
           ---                                      ---
             STORAGE =           0.0000               STORAGE =           0.0000
       CONSTANT HEAD =           0.0000         CONSTANT HEAD =           0.0000
               WELLS =           0.0000                 WELLS =           0.0000
     HEAD DEP BOUNDS =     1539451.2500       HEAD DEP BOUNDS =           0.2904
      STREAM LEAKAGE =    49919704.0000        STREAM LEAKAGE =          10.5438
        UZF RECHARGE =    79491544.0000          UZF RECHARGE =          28.5534
               GW ET =           0.0000                 GW ET =           0.0000
     SURFACE LEAKAGE =           0.0000       SURFACE LEAKAGE =           0.0000

            TOTAL IN =   130950704.0000              TOTAL IN =          39.3875

          OUT:                                     OUT:
          ----                                     ----
             STORAGE =    83692576.0000               STORAGE =          30.0915
       CONSTANT HEAD =           0.0000         CONSTANT HEAD =           0.0000
               WELLS =           0.0000                 WELLS =           0.0000
     HEAD DEP BOUNDS =     1495969.6250       HEAD DEP BOUNDS =           0.2896
      STREAM LEAKAGE =    42413744.0000        STREAM LEAKAGE =           9.0038
        UZF RECHARGE =           0.0000          UZF RECHARGE =           0.0000
               GW ET =     3341160.0000                 GW ET =       2.3924E-10
     SURFACE LEAKAGE =           0.0000       SURFACE LEAKAGE =           0.0000

           TOTAL OUT =   130943448.0000             TOTAL OUT =          39.3849

            IN - OUT =        7256.0000              IN - OUT =       2.6093E-03

 PERCENT DISCREPANCY =           0.01     PERCENT DISCREPANCY =           0.01






         TIME SUMMARY AT END OF TIME STEP   30 IN STRESS PERIOD    2
                    SECONDS     MINUTES      HOURS       DAYS        YEARS
                    -----------------------------------------------------------
   TIME STEP LENGTH  87600.      1460.0      24.333      1.0139     2.77588E-03
 STRESS PERIOD TIME 2.62800E+06  43800.      730.00      30.417     8.32763E-02
         TOTAL TIME 5.25600E+06  87600.      1460.0      60.833     0.16655    
1
1
                            STRESS PERIOD NO.    3, LENGTH =   2628000.    
                            -----------------------------------------------

                              NUMBER OF TIME STEPS =    30

                               MULTIPLIER FOR DELT =     1.000

                            INITIAL TIME STEP SIZE =   87600.00    

 WELL NO.  LAYER   ROW   COL   STRESS RATE         
 --------------------------------------------------
      1      1      6      4       0.000    
      2      1      6      7       0.000    
      3      1      7      4       0.000    
      4      1      7      5       0.000    
      5      1      8      4       0.000    
      6      1      8      5       0.000    
      7      1      9      4       0.000    
      8      1      9      5       0.000    
      9      1     10      4       0.000    
     10      1     10      5       0.000    

     10 WELLS

 REUSING NON-PARAMETER GHB CELLS FROM LAST STRESS PERIOD

      2 GHB CELLS

 REUSING STREAM SEGMENT DATA FROM LAST STRESS PERIOD



            AREAL INFILTRATION RATE
 READING ON UNIT   19 WITH FORMAT: (10F4.0)            

            1           2           3           4           5           6           7           8           9          10
 ........................................................................................................................
   1   1.0000E-10  2.0000E-10   0.000       0.000       0.000       0.000       0.000       0.000       0.000       0.000    
   2   2.0000E-10  1.0000E-10  2.0000E-10   0.000       0.000      8.0000E-10  8.0000E-10  5.0000E-10   0.000       0.000    
   3    0.000      5.0000E-10  1.0000E-10  1.0000E-10  8.0000E-10  8.0000E-10  5.0000E-10  5.0000E-10   0.000       0.000    
   4   8.0000E-10  5.0000E-10  1.0000E-10  1.0000E-10  1.0000E-10  1.0000E-10  1.0000E-10  1.0000E-10  2.0000E-10   0.000    
   5   8.0000E-10  5.0000E-10  1.0000E-10  1.0000E-10  1.0000E-10  1.0000E-10  1.0000E-10  1.0000E-10  1.0000E-10  1.0000E-10
   6   8.0000E-10  5.0000E-10  5.0000E-10  2.0000E-10  2.0000E-10  1.0000E-10  1.0000E-10  1.0000E-10  1.0000E-10  5.0000E-10
   7   8.0000E-10  5.0000E-10  5.0000E-10  2.0000E-10  2.0000E-10  1.0000E-10  1.0000E-10  2.0000E-10  2.0000E-10   0.000    
   8    0.000      5.0000E-10  5.0000E-10  2.0000E-10  2.0000E-10  1.0000E-10  1.0000E-10  2.0000E-10  5.0000E-10   0.000    
   9    0.000      5.0000E-10  5.0000E-10  2.0000E-10  2.0000E-10  1.0000E-10  1.0000E-10  2.0000E-10  5.0000E-10   0.000    
  10    0.000      5.0000E-10  5.0000E-10  2.0000E-10  2.0000E-10  1.0000E-10  1.0000E-10  2.0000E-10  5.0000E-10  8.0000E-10
  11    0.000      1.0000E-10  1.0000E-10  1.0000E-10  1.0000E-10  1.0000E-10  1.0000E-10  2.0000E-10  5.0000E-10   0.000    
  12   1.0000E-10  1.0000E-10  1.0000E-10  1.0000E-10  1.0000E-10  1.0000E-10  1.0000E-10  1.0000E-10  2.0000E-10   0.000    
  13   1.0000E-10  1.0000E-10  2.0000E-10  2.0000E-10  2.0000E-10  2.0000E-10  2.0000E-10  1.0000E-10  1.0000E-10   0.000    
  14    0.000      2.0000E-10  5.0000E-10  5.0000E-10  5.0000E-10  5.0000E-10  5.0000E-10  2.0000E-10  1.0000E-10   0.000    
  15    0.000       0.000      8.0000E-10  8.0000E-10  8.0000E-10  8.0000E-10   0.000       0.000       0.000       0.000    

                  ET RATE =  1.000000E-10

 USING ET EXTINCTION DEPTH FROM PREVIOUS STRESS PERIOD. CURRENT PERIOD IS:       3

 USING EXTINCTION WATER CONTENT FROM PREVIOUS STRESS PERIOD. CURRENT PERIOD IS:       3
 
 SOLVING FOR HEAD 
                                                   Max.-Head-Change                         Max.-Flux-Residual
  Residual-Control   Outer-Iter.   Inner-Iter.     Column Row Layer    Maximum-Head-Change  Column Row Layer    Maximum-Flux-Residual          L2-NORM 
          0                 1           2             2    2     1       0.1072023167E-01       2    2    1         0.5599647984E+00      0.2145959792E+01
          0                 2           2             7    3     1       0.4671222083E-02       7    3    1         0.1219154682E+00      0.5743992190E+00
          0                 3           2             7    3     1       0.2086814896E-02       7    3    1         0.5446400452E-01      0.2237959141E+00
          0                 4           2             7    3     1       0.9322642490E-03       7    3    1         0.2433120660E-01      0.9776566419E-01
          0                 5           2             7    3     1       0.4164806473E-03       7    3    1         0.1086973631E-01      0.4355492418E-01
          0                 6           2             7    3     1       0.1860591242E-03       7    3    1         0.4855957922E-02      0.1946226478E-01
          0                 7           1             7    3     1       0.8312035295E-04       7    3    1         0.2169357470E-02      0.8700997658E-02
          0                 8           1             7    3     1       0.3713334307E-04       7    3    1         0.9691423584E-03      0.3890481103E-02
          0                 9           1             7    3     1       0.1658903163E-04       7    3    1         0.4329565355E-03      0.1739687381E-02
          0                10           1             7    3     1       0.7411026819E-05       7    3    1         0.1934199826E-03      0.7779804629E-03

    ------------------------------------------------
       NWT REQUIRED           10 OUTER ITERATIONS 
       AND A TOTAL OF         16 INNER ITERATIONS.
    ------------------------------------------------

 OUTPUT CONTROL FOR STRESS PERIOD    3   TIME STEP    1
    PRINT BUDGET
    SAVE BUDGET
 UBUDSV SAVING "         STORAGE" ON UNIT102 AT TIME STEP     1, STRESS PERIOD    3
 UBUDSV SAVING "   CONSTANT HEAD" ON UNIT102 AT TIME STEP     1, STRESS PERIOD    3
 UBUDSV SAVING "FLOW RIGHT FACE " ON UNIT102 AT TIME STEP     1, STRESS PERIOD    3
 UBUDSV SAVING "FLOW FRONT FACE " ON UNIT102 AT TIME STEP     1, STRESS PERIOD    3

  HEAD DEP BOUNDS   PERIOD    3   STEP     1
 BOUNDARY      1   LAYER   1   ROW    13   COL     1   RATE   -0.289777    
 BOUNDARY      2   LAYER   1   ROW    14   COL     9   RATE    0.290249    



 STREAM LISTING     PERIOD      3   STEP        1

 LAYER ROW COL. STREAM  RCH.  FLOW INTO     FLOW TO   FLOW OUT OF   OVRLND.     DIRECT     STREAM       STREAM     STREAM     STREAM   STREAMBED  STREAMBED
                SEG.NO.  NO.  STRM. RCH.    AQUIFER    STRM. RCH.    RUNOFF     PRECIP       ET          HEAD       DEPTH      WIDTH   CONDCTNC.   GRADIENT

   1    1    1     1     1    4.1087E+01  3.0764E-01   4.0779E+01  0.000E+00  0.000E+00  0.000E+00  1.09439E+03  1.339E+00  1.576E+01  7.090E-02  1.446E+00
   1    2    2     1     2    4.0779E+01  4.7649E-01   4.0303E+01  0.000E+00  0.000E+00  0.000E+00  1.08939E+03  1.336E+00  1.570E+01  1.099E-01  1.445E+00
   1    3    3     1     3    4.0303E+01  4.0642E-01   3.9896E+01  0.000E+00  0.000E+00  0.000E+00  1.08375E+03  1.333E+00  1.563E+01  9.379E-02  1.444E+00
   1    3    4     1     4    3.9896E+01  3.7429E-01   3.9522E+01  0.000E+00  0.000E+00  0.000E+00  1.07874E+03  1.330E+00  1.557E+01  8.644E-02  1.443E+00
   1    4    5     2     1    3.7522E+01  0.0000E+00   3.7522E+01  0.000E+00  0.000E+00  0.000E+00  1.07347E+03  1.541E+00  1.200E+01  0.000E+00  1.514E+00
   1    5    6     2     2    3.7522E+01  0.0000E+00   3.7522E+01  0.000E+00  0.000E+00  0.000E+00  1.06805E+03  1.541E+00  1.200E+01  0.000E+00  1.514E+00
   1    6    6     2     3    3.7522E+01  0.0000E+00   3.7522E+01  0.000E+00  0.000E+00  0.000E+00  1.06333E+03  1.541E+00  1.200E+01  0.000E+00  1.514E+00
   1    7    6     2     4    3.7522E+01  0.0000E+00   3.7522E+01  0.000E+00  0.000E+00  0.000E+00  1.05862E+03  1.541E+00  1.200E+01  0.000E+00  1.514E+00
   1    8    6     2     5    3.7522E+01  0.0000E+00   3.7522E+01  0.000E+00  0.000E+00  0.000E+00  1.05390E+03  1.541E+00  1.200E+01  0.000E+00  1.514E+00
   1    3    5     3     1    2.0000E+00  2.8252E-01   1.7175E+00  0.000E+00  0.000E+00  0.000E+00  1.07555E+03  1.909E+00  9.636E+00  7.227E-02  1.955E+00
   1    3    6     3     2    1.7175E+00  2.4905E-01   1.4684E+00  0.000E+00  0.000E+00  0.000E+00  1.07264E+03  1.727E+00  8.909E+00  6.682E-02  1.864E+00
   1    3    7     3     3    1.4684E+00  1.9718E-01   1.2712E+00  0.000E+00  0.000E+00  0.000E+00  1.06987E+03  1.555E+00  8.218E+00  5.547E-02  1.777E+00
   1    4    8     3     4    1.2712E+00  2.2567E-01   1.0456E+00  0.000E+00  0.000E+00  0.000E+00  1.06682E+03  1.364E+00  7.455E+00  6.709E-02  1.682E+00
   1    5    8     3     5    1.0456E+00  1.5790E-01   8.8768E-01  0.000E+00  0.000E+00  0.000E+00  1.06362E+03  1.164E+00  6.655E+00  4.991E-02  1.582E+00
   1    6    8     3     6    8.8768E-01  5.5980E-02   8.3170E-01  0.000E+00  0.000E+00  0.000E+00  1.06158E+03  1.036E+00  6.145E+00  1.844E-02  1.518E+00
   1    5   10     4     1    1.0000E+01  0.0000E+00   1.0000E+01  0.000E+00  0.000E+00  0.000E+00  1.07837E+03  6.385E-01  1.000E+01  0.000E+00  1.213E+00
   1    5    9     4     2    1.0000E+01  0.0000E+00   1.0000E+01  0.000E+00  0.000E+00  0.000E+00  1.07155E+03  6.385E-01  1.000E+01  0.000E+00  1.213E+00
   1    6    8     4     3    1.0000E+01  0.0000E+00   1.0000E+01  0.000E+00  0.000E+00  0.000E+00  1.06382E+03  6.385E-01  1.000E+01  0.000E+00  1.213E+00
   1    6    8     5     1    1.0832E+01  2.3262E-01   1.0599E+01  0.000E+00  0.000E+00  0.000E+00  1.05869E+03  6.881E-01  1.577E+01  6.307E-02  1.229E+00
   1    7    7     5     2    1.0599E+01  2.8607E-01   1.0313E+01  0.000E+00  0.000E+00  0.000E+00  1.05418E+03  6.822E-01  1.554E+01  7.769E-02  1.227E+00
   1    8    7     5     3    1.0313E+01  1.9716E-01   1.0116E+01  0.000E+00  0.000E+00  0.000E+00  1.04993E+03  6.766E-01  1.532E+01  5.363E-02  1.226E+00
   1    8    6     5     4    1.0116E+01  1.3929E-01   9.9766E+00  0.000E+00  0.000E+00  0.000E+00  1.04692E+03  6.727E-01  1.517E+01  3.792E-02  1.224E+00
   1    9    6     6     1    4.7498E+01  0.0000E+00   4.7498E+01  0.000E+00  0.000E+00  0.000E+00  1.04452E+03  1.795E+00  1.200E+01  0.000E+00  1.598E+00
   1   10    7     6     2    4.7498E+01  0.0000E+00   4.7498E+01  0.000E+00  0.000E+00  0.000E+00  1.03998E+03  1.795E+00  1.200E+01  0.000E+00  1.598E+00
   1   11    7     6     3    4.7498E+01  0.0000E+00   4.7498E+01  0.000E+00  0.000E+00  0.000E+00  1.03543E+03  1.795E+00  1.200E+01  0.000E+00  1.598E+00
   1   12    7     6     4    4.7498E+01  0.0000E+00   4.7498E+01  0.000E+00  0.000E+00  0.000E+00  1.03089E+03  1.795E+00  1.200E+01  0.000E+00  1.598E+00
   1   13    7     6     5    4.7498E+01  0.0000E+00   4.7498E+01  0.000E+00  0.000E+00  0.000E+00  1.02770E+03  1.795E+00  1.200E+01  0.000E+00  4.981E-01
   1   14    9     7     1    1.5000E+02  1.4018E+00   1.4860E+02  0.000E+00  0.000E+00  0.000E+00  1.03987E+03  2.288E+00  5.529E+01  5.593E-01  8.355E-01
   1   13    8     7     2    1.4860E+02  2.1077E+00   1.4649E+02  0.000E+00  0.000E+00  0.000E+00  1.03478E+03  2.278E+00  5.525E+01  6.147E-01  1.143E+00
   1   13    7     7     3    1.4649E+02  1.9414E+00   1.4455E+02  0.000E+00  0.000E+00  0.000E+00  1.02969E+03  2.267E+00  5.520E+01  5.583E-01  1.159E+00
   1   13    6     8     1    1.9205E+02  1.4584E+00   1.9059E+02  0.000E+00  0.000E+00  0.000E+00  1.02496E+03  3.086E+00  4.475E+01  4.560E-01  1.066E+00
   1   13    5     8     2    1.9059E+02  6.0929E-01   1.8998E+02  0.000E+00  0.000E+00  0.000E+00  1.01870E+03  3.080E+00  4.466E+01  4.551E-01  4.463E-01
   1   13    4     8     3    1.8998E+02 -9.3570E-01   1.9092E+02  0.000E+00  0.000E+00  0.000E+00  1.01246E+03  3.081E+00  4.467E+01  4.552E+00 -6.852E-02
   1   13    3     8     4    1.9092E+02 -2.8066E+00   1.9372E+02  0.000E+00  0.000E+00  0.000E+00  1.00622E+03  3.092E+00  4.483E+01  4.569E+00 -2.048E-01
   1   13    2     8     5    1.9372E+02 -2.1725E+00   1.9589E+02  0.000E+00  0.000E+00  0.000E+00  9.99982E+02  3.107E+00  4.505E+01  4.591E+00 -1.577E-01
   1   13    1     8     6    1.9589E+02 -1.7476E+00   1.9764E+02  0.000E+00  0.000E+00  0.000E+00  9.94994E+02  3.119E+00  4.522E+01  2.765E+00 -2.107E-01
   1    6    8     9     1    0.0000E+00  0.0000E+00   0.0000E+00  0.000E+00  0.000E+00  0.000E+00  1.07850E+03  0.000E+00  4.000E+00  0.000E+00  1.000E+00



 UBDSV3 SAVING "     NETRECHARGE" ON UNIT 100 AT TIME STEP     1, STRESS PERIOD   3
 UBDSV3 SAVING "    NETDISCHARGE" ON UNIT 101 AT TIME STEP     1, STRESS PERIOD   3
 UBDSV3 SAVING "           GW ET" ON UNIT  61 AT TIME STEP     1, STRESS PERIOD   3
 UBDSV3 SAVING "    UZF RECHARGE" ON UNIT  61 AT TIME STEP     1, STRESS PERIOD   3
 UBDSV3 SAVING " SURFACE LEAKAGE" ON UNIT  61 AT TIME STEP     1, STRESS PERIOD   3
 UBDSV3 SAVING "       HORT+DUNN" ON UNIT  61 AT TIME STEP     1, STRESS PERIOD   3
 UBDSV3 SAVING "  STORAGE CHANGE" ON UNIT  61 AT TIME STEP     1, STRESS PERIOD   3


UNSATURATED ZONE PACKAGE VOLUMETRIC BUDGET FOR  TIME STEP     1 STRESS PERIOD    3
  ------------------------------------------------------------------------------



     CUMULATIVE VOLUMES      L**3       RATES FOR THIS TIME STEP      L**3/T
     ------------------                 ------------------------

           IN:                                      IN:
           ---                                      ---
        INFILTRATION =     4528701.0000          INFILTRATION =           0.8475

          OUT:                                     OUT:
          ----                                     ----
              UZF ET =      787617.6372                UZF ET =           0.2900
        UZF RECHARGE =    82038794.5547          UZF RECHARGE =          29.0781

            IN - OUT =   -78297711.1919              IN - OUT =         -28.5207

          STORAGE:                                 STORAGE:
          --------                                 --------
      STORAGE CHANGE =   -78296895.0069        STORAGE CHANGE =         -28.5205

 PERCENT DISCREPANCY IS DIFFERENCE BETWEEN IN-OUT MINUS CHANGE IN STORAGE
 DIVIDED BY THE AVERAGE OF IN AND OUT TIMES 100

 PERCENT DISCREPANCY =          -0.00     PERCENT DISCREPANCY =          -0.00






1
  VOLUMETRIC BUDGET FOR ENTIRE MODEL AT END OF TIME STEP    1, STRESS PERIOD   3
  ------------------------------------------------------------------------------

     CUMULATIVE VOLUMES      L**3       RATES FOR THIS TIME STEP      L**3/T
     ------------------                 ------------------------

           IN:                                      IN:
           ---                                      ---
             STORAGE =           0.0000               STORAGE =           0.0000
       CONSTANT HEAD =           0.0000         CONSTANT HEAD =           0.0000
               WELLS =           0.0000                 WELLS =           0.0000
     HEAD DEP BOUNDS =     1564877.1250       HEAD DEP BOUNDS =           0.2902
      STREAM LEAKAGE =    50892656.0000        STREAM LEAKAGE =          11.1068
        UZF RECHARGE =    82038784.0000          UZF RECHARGE =          29.0781
               GW ET =           0.0000                 GW ET =           0.0000
     SURFACE LEAKAGE =           0.0000       SURFACE LEAKAGE =           0.0000

            TOTAL IN =   134496320.0000              TOTAL IN =          40.4751

          OUT:                                     OUT:
          ----                                     ----
             STORAGE =    86541352.0000               STORAGE =          32.5203
       CONSTANT HEAD =           0.0000         CONSTANT HEAD =           0.0000
               WELLS =           0.0000                 WELLS =           0.0000
     HEAD DEP BOUNDS =     1521354.1250       HEAD DEP BOUNDS =           0.2898
      STREAM LEAKAGE =    43084976.0000        STREAM LEAKAGE =           7.6625
        UZF RECHARGE =           0.0000          UZF RECHARGE =           0.0000
               GW ET =     3341160.0000                 GW ET =       2.1682E-10
     SURFACE LEAKAGE =           0.0000       SURFACE LEAKAGE =           0.0000

           TOTAL OUT =   134488832.0000             TOTAL OUT =          40.4725

            IN - OUT =        7488.0000              IN - OUT =       2.6016E-03

 PERCENT DISCREPANCY =           0.01     PERCENT DISCREPANCY =           0.01






         TIME SUMMARY AT END OF TIME STEP    1 IN STRESS PERIOD    3
                    SECONDS     MINUTES      HOURS       DAYS        YEARS
                    -----------------------------------------------------------
   TIME STEP LENGTH  87600.      1460.0      24.333      1.0139     2.77588E-03
 STRESS PERIOD TIME  87600.      1460.0      24.333      1.0139     2.77588E-03
         TOTAL TIME 5.34360E+06  89060.      1484.3      61.847     0.16933    
1
 
 SOLVING FOR HEAD 
                                                   Max.-Head-Change                         Max.-Flux-Residual
  Residual-Control   Outer-Iter.   Inner-Iter.     Column Row Layer    Maximum-Head-Change  Column Row Layer    Maximum-Flux-Residual          L2-NORM 
          0                 1           2             2    2     1       0.1073233322E-01       2    2    1         0.5605668940E+00      0.2127522533E+01
          0                 2           2             7    3     1       0.4639675490E-02       7    3    1         0.1210886161E+00      0.5719001860E+00
          0                 3           2             7    3     1       0.2072794532E-02       7    3    1         0.5409653885E-01      0.2230491469E+00
          0                 4           2             7    3     1       0.9260327903E-03       7    3    1         0.2416789094E-01      0.9744637800E-01
          0                 5           2             7    3     1       0.4137108735E-03       7    3    1         0.1079714867E-01      0.4341388128E-01
          0                 6           2             7    3     1       0.1848279401E-03       7    3    1         0.4823693666E-02      0.1939990219E-01
          0                 7           1             7    3     1       0.8257305309E-04       7    3    1         0.2155015636E-02      0.8673436755E-02
          0                 8           1             7    3     1       0.3689003805E-04       7    3    1         0.9627668973E-03      0.3878298121E-02
          0                 9           1             7    3     1       0.1648086311E-04       7    3    1         0.4301222590E-03      0.1734302232E-02
          0                10           1             7    3     1       0.7362934717E-05       7    3    1         0.1921599097E-03      0.7756004680E-03

    ------------------------------------------------
       NWT REQUIRED           10 OUTER ITERATIONS 
       AND A TOTAL OF         16 INNER ITERATIONS.
    ------------------------------------------------

 NO OUTPUT CONTROL FOR STRESS PERIOD    3   TIME STEP    2
 
 SOLVING FOR HEAD 
                                                   Max.-Head-Change                         Max.-Flux-Residual
  Residual-Control   Outer-Iter.   Inner-Iter.     Column Row Layer    Maximum-Head-Change  Column Row Layer    Maximum-Flux-Residual          L2-NORM 
          0                 1           2             2    2     1       0.1065438435E-01       2    2    1         0.5564470663E+00      0.2097829379E+01
          0                 2           2             7    3     1       0.4608538730E-02       7    3    1         0.1202725377E+00      0.5688871920E+00
          0                 3           2             7    3     1       0.2058955658E-02       7    3    1         0.5373384387E-01      0.2222745927E+00
          0                 4           2             7    3     1       0.9198817111E-03       7    3    1         0.2400668797E-01      0.9712717811E-01
          0                 5           2             7    3     1       0.4109767025E-03       7    3    1         0.1072549673E-01      0.4327372138E-01
          0                 6           2             7    3     1       0.1836125272E-03       7    3    1         0.4791843862E-02      0.1933798662E-01
          0                 7           1             7    3     1       0.8203273983E-04       7    3    1         0.2140857396E-02      0.8646068276E-02
          0                 8           1             7    3     1       0.3664982840E-04       7    3    1         0.9564727786E-03      0.3866199659E-02
          0                 9           1             7    3     1       0.1637406669E-04       7    3    1         0.4273240298E-03      0.1728952716E-02
          0                10           1             7    3     1       0.7315450635E-05       7    3    1         0.1909158108E-03      0.7732351405E-03

    ------------------------------------------------
       NWT REQUIRED           10 OUTER ITERATIONS 
       AND A TOTAL OF         16 INNER ITERATIONS.
    ------------------------------------------------

 NO OUTPUT CONTROL FOR STRESS PERIOD    3   TIME STEP    3
 
 SOLVING FOR HEAD 
                                                   Max.-Head-Change                         Max.-Flux-Residual
  Residual-Control   Outer-Iter.   Inner-Iter.     Column Row Layer    Maximum-Head-Change  Column Row Layer    Maximum-Flux-Residual          L2-NORM 
          0                 1           2             2    2     1       0.1057824804E-01       2    2    1         0.5524232851E+00      0.2073191576E+01
          0                 2           2             7    3     1       0.4577949013E-02       7    3    1         0.1194708364E+00      0.5661805389E+00
          0                 3           2             7    3     1       0.2045359111E-02       7    3    1         0.5337751714E-01      0.2215213195E+00
          0                 4           2             7    3     1       0.9138379855E-03       7    3    1         0.2384830604E-01      0.9681222397E-01
          0                 5           2             7    3     1       0.4082900942E-03       7    3    1         0.1065509455E-01      0.4313516844E-01
          0                 6           2             7    3     1       0.1824181893E-03       7    3    1         0.4760547787E-02      0.1927676463E-01
          0                 7           1             7    3     1       0.8150176559E-04       7    3    1         0.2126944511E-02      0.8618998697E-02
          0                 8           1             7    3     1       0.3641375759E-04       7    3    1         0.9502873816E-03      0.3854229117E-02
          0                 9           1             7    3     1       0.1626910434E-04       7    3    1         0.4245739781E-03      0.1723659258E-02
          0                10           1             7    3     1       0.7268779915E-05       7    3    1         0.1896930642E-03      0.7708946683E-03

    ------------------------------------------------
       NWT REQUIRED           10 OUTER ITERATIONS 
       AND A TOTAL OF         16 INNER ITERATIONS.
    ------------------------------------------------

 NO OUTPUT CONTROL FOR STRESS PERIOD    3   TIME STEP    4
 
 SOLVING FOR HEAD 
                                                   Max.-Head-Change                         Max.-Flux-Residual
  Residual-Control   Outer-Iter.   Inner-Iter.     Column Row Layer    Maximum-Head-Change  Column Row Layer    Maximum-Flux-Residual          L2-NORM 
          0                 1           2             2    2     1       0.1050391382E-01       2    2    1         0.5484949752E+00      0.2052387640E+01
          0                 2           2             7    3     1       0.4547744815E-02       7    3    1         0.1186792678E+00      0.5637101936E+00
          0                 3           2             7    3     1       0.2031933325E-02       7    3    1         0.5302567830E-01      0.2207855812E+00
          0                 4           2             7    3     1       0.9078699044E-03       7    3    1         0.2369191198E-01      0.9650104117E-01
          0                 5           2             7    3     1       0.4056369986E-03       7    3    1         0.1058557299E-01      0.4299809036E-01
          0                 6           2             7    3     1       0.1812386993E-03       7    3    1         0.4729641834E-02      0.1921616014E-01
          0                 7           1             7    3     1       0.8097737102E-04       7    3    1         0.2113204477E-02      0.8592196825E-02
          0                 8           1             7    3     1       0.3618060220E-04       7    3    1         0.9441785706E-03      0.3842375813E-02
          0                 9           1             7    3     1       0.1616543394E-04       7    3    1         0.4218578638E-03      0.1718415421E-02
          0                10           1             7    3     1       0.7222681448E-05       7    3    1         0.1884853569E-03      0.7685731282E-03

    ------------------------------------------------
       NWT REQUIRED           10 OUTER ITERATIONS 
       AND A TOTAL OF         16 INNER ITERATIONS.
    ------------------------------------------------

 OUTPUT CONTROL FOR STRESS PERIOD    3   TIME STEP    5
    PRINT BUDGET
    SAVE BUDGET
 UBUDSV SAVING "         STORAGE" ON UNIT102 AT TIME STEP     5, STRESS PERIOD    3
 UBUDSV SAVING "   CONSTANT HEAD" ON UNIT102 AT TIME STEP     5, STRESS PERIOD    3
 UBUDSV SAVING "FLOW RIGHT FACE " ON UNIT102 AT TIME STEP     5, STRESS PERIOD    3
 UBUDSV SAVING "FLOW FRONT FACE " ON UNIT102 AT TIME STEP     5, STRESS PERIOD    3

  HEAD DEP BOUNDS   PERIOD    3   STEP     5
 BOUNDARY      1   LAYER   1   ROW    13   COL     1   RATE   -0.290611    
 BOUNDARY      2   LAYER   1   ROW    14   COL     9   RATE    0.289843    



 STREAM LISTING     PERIOD      3   STEP        5

 LAYER ROW COL. STREAM  RCH.  FLOW INTO     FLOW TO   FLOW OUT OF   OVRLND.     DIRECT     STREAM       STREAM     STREAM     STREAM   STREAMBED  STREAMBED
                SEG.NO.  NO.  STRM. RCH.    AQUIFER    STRM. RCH.    RUNOFF     PRECIP       ET          HEAD       DEPTH      WIDTH   CONDCTNC.   GRADIENT

   1    1    1     1     1    4.2000E+01  3.1070E-01   4.1689E+01  0.000E+00  0.000E+00  0.000E+00  1.09439E+03  1.346E+00  1.589E+01  7.149E-02  1.449E+00
   1    2    2     1     2    4.1689E+01  4.8125E-01   4.1208E+01  0.000E+00  0.000E+00  0.000E+00  1.08940E+03  1.343E+00  1.583E+01  1.108E-01  1.448E+00
   1    3    3     1     3    4.1208E+01  4.1050E-01   4.0798E+01  0.000E+00  0.000E+00  0.000E+00  1.08376E+03  1.340E+00  1.577E+01  9.459E-02  1.447E+00
   1    3    4     1     4    4.0798E+01  3.7807E-01   4.0419E+01  0.000E+00  0.000E+00  0.000E+00  1.07874E+03  1.337E+00  1.571E+01  8.718E-02  1.446E+00
   1    4    5     2     1    3.8419E+01  0.0000E+00   3.8419E+01  0.000E+00  0.000E+00  0.000E+00  1.07350E+03  1.563E+00  1.200E+01  0.000E+00  1.521E+00
   1    5    6     2     2    3.8419E+01  0.0000E+00   3.8419E+01  0.000E+00  0.000E+00  0.000E+00  1.06807E+03  1.563E+00  1.200E+01  0.000E+00  1.521E+00
   1    6    6     2     3    3.8419E+01  0.0000E+00   3.8419E+01  0.000E+00  0.000E+00  0.000E+00  1.06336E+03  1.563E+00  1.200E+01  0.000E+00  1.521E+00
   1    7    6     2     4    3.8419E+01  0.0000E+00   3.8419E+01  0.000E+00  0.000E+00  0.000E+00  1.05864E+03  1.563E+00  1.200E+01  0.000E+00  1.521E+00
   1    8    6     2     5    3.8419E+01  0.0000E+00   3.8419E+01  0.000E+00  0.000E+00  0.000E+00  1.05392E+03  1.563E+00  1.200E+01  0.000E+00  1.521E+00
   1    3    5     3     1    2.0000E+00  2.8252E-01   1.7175E+00  0.000E+00  0.000E+00  0.000E+00  1.07555E+03  1.909E+00  9.636E+00  7.227E-02  1.955E+00
   1    3    6     3     2    1.7175E+00  2.4905E-01   1.4684E+00  0.000E+00  0.000E+00  0.000E+00  1.07264E+03  1.727E+00  8.909E+00  6.682E-02  1.864E+00
   1    3    7     3     3    1.4684E+00  1.9718E-01   1.2712E+00  0.000E+00  0.000E+00  0.000E+00  1.06987E+03  1.555E+00  8.218E+00  5.547E-02  1.777E+00
   1    4    8     3     4    1.2712E+00  2.2567E-01   1.0456E+00  0.000E+00  0.000E+00  0.000E+00  1.06682E+03  1.364E+00  7.455E+00  6.709E-02  1.682E+00
   1    5    8     3     5    1.0456E+00  1.5790E-01   8.8768E-01  0.000E+00  0.000E+00  0.000E+00  1.06362E+03  1.164E+00  6.655E+00  4.991E-02  1.582E+00
   1    6    8     3     6    8.8768E-01  5.5980E-02   8.3170E-01  0.000E+00  0.000E+00  0.000E+00  1.06158E+03  1.036E+00  6.145E+00  1.844E-02  1.518E+00
   1    5   10     4     1    1.0000E+01  0.0000E+00   1.0000E+01  0.000E+00  0.000E+00  0.000E+00  1.07837E+03  6.385E-01  1.000E+01  0.000E+00  1.213E+00
   1    5    9     4     2    1.0000E+01  0.0000E+00   1.0000E+01  0.000E+00  0.000E+00  0.000E+00  1.07155E+03  6.385E-01  1.000E+01  0.000E+00  1.213E+00
   1    6    8     4     3    1.0000E+01  0.0000E+00   1.0000E+01  0.000E+00  0.000E+00  0.000E+00  1.06382E+03  6.385E-01  1.000E+01  0.000E+00  1.213E+00
   1    6    8     5     1    1.0832E+01  2.3262E-01   1.0599E+01  0.000E+00  0.000E+00  0.000E+00  1.05869E+03  6.881E-01  1.577E+01  6.307E-02  1.229E+00
   1    7    7     5     2    1.0599E+01  2.8607E-01   1.0313E+01  0.000E+00  0.000E+00  0.000E+00  1.05418E+03  6.822E-01  1.554E+01  7.769E-02  1.227E+00
   1    8    7     5     3    1.0313E+01  1.9716E-01   1.0116E+01  0.000E+00  0.000E+00  0.000E+00  1.04993E+03  6.766E-01  1.532E+01  5.363E-02  1.226E+00
   1    8    6     5     4    1.0116E+01  1.3929E-01   9.9766E+00  0.000E+00  0.000E+00  0.000E+00  1.04692E+03  6.727E-01  1.517E+01  3.792E-02  1.224E+00
   1    9    6     6     1    4.8396E+01  0.0000E+00   4.8396E+01  0.000E+00  0.000E+00  0.000E+00  1.04454E+03  1.815E+00  1.200E+01  0.000E+00  1.605E+00
   1   10    7     6     2    4.8396E+01  0.0000E+00   4.8396E+01  0.000E+00  0.000E+00  0.000E+00  1.04000E+03  1.815E+00  1.200E+01  0.000E+00  1.605E+00
   1   11    7     6     3    4.8396E+01  0.0000E+00   4.8396E+01  0.000E+00  0.000E+00  0.000E+00  1.03545E+03  1.815E+00  1.200E+01  0.000E+00  1.605E+00
   1   12    7     6     4    4.8396E+01  0.0000E+00   4.8396E+01  0.000E+00  0.000E+00  0.000E+00  1.03091E+03  1.815E+00  1.200E+01  0.000E+00  1.605E+00
   1   13    7     6     5    4.8396E+01  0.0000E+00   4.8396E+01  0.000E+00  0.000E+00  0.000E+00  1.02772E+03  1.815E+00  1.200E+01  0.000E+00  5.003E-01
   1   14    9     7     1    1.5000E+02  1.3958E+00   1.4860E+02  0.000E+00  0.000E+00  0.000E+00  1.03987E+03  2.288E+00  5.529E+01  5.593E-01  8.319E-01
   1   13    8     7     2    1.4860E+02  2.1002E+00   1.4650E+02  0.000E+00  0.000E+00  0.000E+00  1.03478E+03  2.278E+00  5.525E+01  6.147E-01  1.139E+00
   1   13    7     7     3    1.4650E+02  1.9338E+00   1.4457E+02  0.000E+00  0.000E+00  0.000E+00  1.02969E+03  2.267E+00  5.520E+01  5.583E-01  1.155E+00
   1   13    6     8     1    1.9297E+02  1.4514E+00   1.9151E+02  0.000E+00  0.000E+00  0.000E+00  1.02497E+03  3.092E+00  4.483E+01  4.568E-01  1.059E+00
   1   13    5     8     2    1.9151E+02  6.0085E-01   1.9091E+02  0.000E+00  0.000E+00  0.000E+00  1.01871E+03  3.085E+00  4.474E+01  4.559E-01  4.393E-01
   1   13    4     8     3    1.9091E+02 -1.0587E+00   1.9197E+02  0.000E+00  0.000E+00  0.000E+00  1.01246E+03  3.087E+00  4.476E+01  4.561E+00 -7.738E-02
   1   13    3     8     4    1.9197E+02 -2.9106E+00   1.9488E+02  0.000E+00  0.000E+00  0.000E+00  1.00622E+03  3.099E+00  4.493E+01  4.579E+00 -2.119E-01
   1   13    2     8     5    1.9488E+02 -2.2910E+00   1.9717E+02  0.000E+00  0.000E+00  0.000E+00  9.99989E+02  3.114E+00  4.516E+01  4.602E+00 -1.660E-01
   1   13    1     8     6    1.9717E+02 -1.7914E+00   1.9897E+02  0.000E+00  0.000E+00  0.000E+00  9.95001E+02  3.126E+00  4.533E+01  2.772E+00 -2.154E-01
   1    6    8     9     1    0.0000E+00  0.0000E+00   0.0000E+00  0.000E+00  0.000E+00  0.000E+00  1.07850E+03  0.000E+00  4.000E+00  0.000E+00  1.000E+00



 UBDSV3 SAVING "     NETRECHARGE" ON UNIT 100 AT TIME STEP     5, STRESS PERIOD   3
 UBDSV3 SAVING "    NETDISCHARGE" ON UNIT 101 AT TIME STEP     5, STRESS PERIOD   3
 UBDSV3 SAVING "           GW ET" ON UNIT  61 AT TIME STEP     5, STRESS PERIOD   3
 UBDSV3 SAVING "    UZF RECHARGE" ON UNIT  61 AT TIME STEP     5, STRESS PERIOD   3
 UBDSV3 SAVING " SURFACE LEAKAGE" ON UNIT  61 AT TIME STEP     5, STRESS PERIOD   3
 UBDSV3 SAVING "       HORT+DUNN" ON UNIT  61 AT TIME STEP     5, STRESS PERIOD   3
 UBDSV3 SAVING "  STORAGE CHANGE" ON UNIT  61 AT TIME STEP     5, STRESS PERIOD   3


UNSATURATED ZONE PACKAGE VOLUMETRIC BUDGET FOR  TIME STEP     5 STRESS PERIOD    3
  ------------------------------------------------------------------------------



     CUMULATIVE VOLUMES      L**3       RATES FOR THIS TIME STEP      L**3/T
     ------------------                 ------------------------

           IN:                                      IN:
           ---                                      ---
        INFILTRATION =     4825665.0000          INFILTRATION =           0.8475

          OUT:                                     OUT:
          ----                                     ----
              UZF ET =      889251.7546                UZF ET =           0.2900
        UZF RECHARGE =    92179738.7461          UZF RECHARGE =          28.8667

            IN - OUT =   -88243325.5007              IN - OUT =         -28.3093

          STORAGE:                                 STORAGE:
          --------                                 --------
      STORAGE CHANGE =   -88242461.2908        STORAGE CHANGE =         -28.3091

 PERCENT DISCREPANCY IS DIFFERENCE BETWEEN IN-OUT MINUS CHANGE IN STORAGE
 DIVIDED BY THE AVERAGE OF IN AND OUT TIMES 100

 PERCENT DISCREPANCY =          -0.00     PERCENT DISCREPANCY =          -0.00






1
  VOLUMETRIC BUDGET FOR ENTIRE MODEL AT END OF TIME STEP    5, STRESS PERIOD   3
  ------------------------------------------------------------------------------

     CUMULATIVE VOLUMES      L**3       RATES FOR THIS TIME STEP      L**3/T
     ------------------                 ------------------------

           IN:                                      IN:
           ---                                      ---
             STORAGE =           0.0000               STORAGE =           0.0000
       CONSTANT HEAD =           0.0000         CONSTANT HEAD =           0.0000
               WELLS =           0.0000                 WELLS =           0.0000
     HEAD DEP BOUNDS =     1666491.1250       HEAD DEP BOUNDS =           0.2898
      STREAM LEAKAGE =    54783052.0000        STREAM LEAKAGE =          11.0860
        UZF RECHARGE =    92179728.0000          UZF RECHARGE =          28.8667
               GW ET =           0.0000                 GW ET =           0.0000
     SURFACE LEAKAGE =           0.0000       SURFACE LEAKAGE =           0.0000

            TOTAL IN =   148629280.0000              TOTAL IN =          40.2426

          OUT:                                     OUT:
          ----                                     ----
             STORAGE =    97806256.0000               STORAGE =          31.8976
       CONSTANT HEAD =           0.0000         CONSTANT HEAD =           0.0000
               WELLS =           0.0000                 WELLS =           0.0000
     HEAD DEP BOUNDS =     1623079.2500       HEAD DEP BOUNDS =           0.2906
      STREAM LEAKAGE =    45850392.0000        STREAM LEAKAGE =           8.0518
        UZF RECHARGE =           0.0000          UZF RECHARGE =           0.0000
               GW ET =     3341160.0000                 GW ET =       2.4362E-10
     SURFACE LEAKAGE =           0.0000       SURFACE LEAKAGE =           0.0000

           TOTAL OUT =   148620896.0000             TOTAL OUT =          40.2400

            IN - OUT =        8384.0000              IN - OUT =       2.5635E-03

 PERCENT DISCREPANCY =           0.01     PERCENT DISCREPANCY =           0.01






         TIME SUMMARY AT END OF TIME STEP    5 IN STRESS PERIOD    3
                    SECONDS     MINUTES      HOURS       DAYS        YEARS
                    -----------------------------------------------------------
   TIME STEP LENGTH  87600.      1460.0      24.333      1.0139     2.77588E-03
 STRESS PERIOD TIME 4.38000E+05  7300.0      121.67      5.0694     1.38794E-02
         TOTAL TIME 5.69400E+06  94900.      1581.7      65.903     0.18043    
1
 
 SOLVING FOR HEAD 
                                                   Max.-Head-Change                         Max.-Flux-Residual
  Residual-Control   Outer-Iter.   Inner-Iter.     Column Row Layer    Maximum-Head-Change  Column Row Layer    Maximum-Flux-Residual          L2-NORM 
          0                 1           2             2    2     1       0.1043129189E-01       2    2    1         0.5446573914E+00      0.2033974052E+01
          0                 2           2             7    3     1       0.4517989909E-02       7    3    1         0.1178995100E+00      0.5612900924E+00
          0                 3           2             7    3     1       0.2018706506E-02       7    3    1         0.5267906947E-01      0.2200562397E+00
          0                 4           2             7    3     1       0.9019899422E-03       7    3    1         0.2353783405E-01      0.9619306261E-01
          0                 5           2             7    3     1       0.4030229336E-03       7    3    1         0.1051707723E-01      0.4286243109E-01
          0                 6           2             7    3     1       0.1800764989E-03       7    3    1         0.4699190255E-02      0.1915617186E-01
          0                 7           1             7    3     1       0.8046063547E-04       7    3    1         0.2099665722E-02      0.8565661395E-02
          0                 8           1             7    3     1       0.3595084056E-04       7    3    1         0.9381589398E-03      0.3830634851E-02
          0                 9           1             7    3     1       0.1606326708E-04       7    3    1         0.4191812675E-03      0.1713220858E-02
          0                10           1             7    3     1       0.7177249777E-05       7    3    1         0.1872951698E-03      0.7662749300E-03

    ------------------------------------------------
       NWT REQUIRED           10 OUTER ITERATIONS 
       AND A TOTAL OF         16 INNER ITERATIONS.
    ------------------------------------------------

 NO OUTPUT CONTROL FOR STRESS PERIOD    3   TIME STEP    6
 
 SOLVING FOR HEAD 
                                                   Max.-Head-Change                         Max.-Flux-Residual
  Residual-Control   Outer-Iter.   Inner-Iter.     Column Row Layer    Maximum-Head-Change  Column Row Layer    Maximum-Flux-Residual          L2-NORM 
          0                 1           2             2    2     1       0.1036037482E-01       2    2    1         0.5409101189E+00      0.2016578877E+01
          0                 2           2             7    3     1       0.4488746615E-02       7    3    1         0.1171331995E+00      0.5588407942E+00
          0                 3           2             7    3     1       0.2005706289E-02       7    3    1         0.5233841630E-01      0.2193328238E+00
          0                 4           2             7    3     1       0.8962103545E-03       7    3    1         0.2338639403E-01      0.9588808987E-01
          0                 5           2             7    3     1       0.4004533335E-03       7    3    1         0.1044974995E-01      0.4272805467E-01
          0                 6           2             7    3     1       0.1789339978E-03       7    3    1         0.4669256323E-02      0.1909674484E-01
          0                 7           1             7    3     1       0.7995262868E-04       7    3    1         0.2086356314E-02      0.8539366881E-02
          0                 8           1             7    3     1       0.3572494665E-04       7    3    1         0.9322409274E-03      0.3818998406E-02
          0                 9           1             7    3     1       0.1596281498E-04       7    3    1         0.4165496999E-03      0.1708070746E-02
          0                10           1             7    3     1       0.7132577194E-05       7    3    1         0.1861249262E-03      0.7639959319E-03

    ------------------------------------------------
       NWT REQUIRED           10 OUTER ITERATIONS 
       AND A TOTAL OF         16 INNER ITERATIONS.
    ------------------------------------------------

 NO OUTPUT CONTROL FOR STRESS PERIOD    3   TIME STEP    7
 
 SOLVING FOR HEAD 
                                                   Max.-Head-Change                         Max.-Flux-Residual
  Residual-Control   Outer-Iter.   Inner-Iter.     Column Row Layer    Maximum-Head-Change  Column Row Layer    Maximum-Flux-Residual          L2-NORM 
          0                 1           2             2    2     1       0.1029107592E-01       2    2    1         0.5372485611E+00      0.2002790184E+01
          0                 2           2             7    3     1       0.4459854470E-02       7    3    1         0.1163761162E+00      0.5568059174E+00
          0                 3           2             7    3     1       0.1992861654E-02       7    3    1         0.5200185111E-01      0.2186320621E+00
          0                 4           2             7    3     1       0.8904997080E-03       7    3    1         0.2323676528E-01      0.9558682957E-01
          0                 5           2             7    3     1       0.3979142856E-03       7    3    1         0.1038322530E-01      0.4259519361E-01
          0                 6           2             7    3     1       0.1778050376E-03       7    3    1         0.4639678072E-02      0.1903796958E-01
          0                 7           1             7    3     1       0.7945062330E-04       7    3    1         0.2073204541E-02      0.8513354960E-02
          0                 8           1             7    3     1       0.3550171354E-04       7    3    1         0.9263927872E-03      0.3807486632E-02
          0                 9           1             7    3     1       0.1586354178E-04       7    3    1         0.4139491007E-03      0.1702975756E-02
          0                10           1             7    3     1       0.7088427968E-05       7    3    1         0.1849684159E-03      0.7617392792E-03

    ------------------------------------------------
       NWT REQUIRED           10 OUTER ITERATIONS 
       AND A TOTAL OF         16 INNER ITERATIONS.
    ------------------------------------------------

 NO OUTPUT CONTROL FOR STRESS PERIOD    3   TIME STEP    8
 
 SOLVING FOR HEAD 
                                                   Max.-Head-Change                         Max.-Flux-Residual
  Residual-Control   Outer-Iter.   Inner-Iter.     Column Row Layer    Maximum-Head-Change  Column Row Layer    Maximum-Flux-Residual          L2-NORM 
          0                 1           2             2    2     1       0.1022339098E-01       2    2    1         0.5336724766E+00      0.1991833708E+01
          0                 2           2             7    3     1       0.4431452511E-02       7    3    1         0.1156319119E+00      0.5549146185E+00
          0                 3           2             7    3     1       0.1980234238E-02       7    3    1         0.5167099268E-01      0.2179444632E+00
          0                 4           2             7    3     1       0.8848853258E-03       7    3    1         0.2308966544E-01      0.9528958811E-01
          0                 5           2             7    3     1       0.3954179020E-03       7    3    1         0.1031782138E-01      0.4246400600E-01
          0                 6           2             7    3     1       0.1766949882E-03       7    3    1         0.4610596558E-02      0.1897992628E-01
          0                 7           1             7    3     1       0.7895700090E-04       7    3    1         0.2060272944E-02      0.8487664932E-02
          0                 8           1             7    3     1       0.3528219620E-04       7    3    1         0.9206422457E-03      0.3796112876E-02
          0                 9           1             7    3     1       0.1576591606E-04       7    3    1         0.4113917727E-03      0.1697939284E-02
          0                10           1             7    3     1       0.7045009316E-05       7    3    1         0.1838310936E-03      0.7595093965E-03

    ------------------------------------------------
       NWT REQUIRED           10 OUTER ITERATIONS 
       AND A TOTAL OF         16 INNER ITERATIONS.
    ------------------------------------------------

 NO OUTPUT CONTROL FOR STRESS PERIOD    3   TIME STEP    9
 
 SOLVING FOR HEAD 
                                                   Max.-Head-Change                         Max.-Flux-Residual
  Residual-Control   Outer-Iter.   Inner-Iter.     Column Row Layer    Maximum-Head-Change  Column Row Layer    Maximum-Flux-Residual          L2-NORM 
          0                 1           2             2    2     1       0.1015727629E-01       2    2    1         0.5301795497E+00      0.1981596338E+01
          0                 2           2             7    3     1       0.4403380989E-02       7    3    1         0.1148963876E+00      0.5531161342E+00
          0                 3           2             7    3     1       0.1967753288E-02       7    3    1         0.5134398137E-01      0.2172734520E+00
          0                 4           2             7    3     1       0.8793358702E-03       7    3    1         0.2294427086E-01      0.9499676148E-01
          0                 5           2             7    3     1       0.3929503033E-03       7    3    1         0.1025317342E-01      0.4233448140E-01
          0                 6           2             7    3     1       0.1755977014E-03       7    3    1         0.4581850188E-02      0.1892258655E-01
          0                 7           1             7    3     1       0.7846903775E-04       7    3    1         0.2047489951E-02      0.8462279217E-02
          0                 8           1             7    3     1       0.3506518861E-04       7    3    1         0.9149576047E-03      0.3784870975E-02
          0                 9           1             7    3     1       0.1566940434E-04       7    3    1         0.4088636763E-03      0.1692961411E-02
          0                10           1             7    3     1       0.7002084133E-05       7    3    1         0.1827067277E-03      0.7573048887E-03

    ------------------------------------------------
       NWT REQUIRED           10 OUTER ITERATIONS 
       AND A TOTAL OF         16 INNER ITERATIONS.
    ------------------------------------------------

 OUTPUT CONTROL FOR STRESS PERIOD    3   TIME STEP   10
    PRINT BUDGET
    SAVE BUDGET
 UBUDSV SAVING "         STORAGE" ON UNIT102 AT TIME STEP    10, STRESS PERIOD    3
 UBUDSV SAVING "   CONSTANT HEAD" ON UNIT102 AT TIME STEP    10, STRESS PERIOD    3
 UBUDSV SAVING "FLOW RIGHT FACE " ON UNIT102 AT TIME STEP    10, STRESS PERIOD    3
 UBUDSV SAVING "FLOW FRONT FACE " ON UNIT102 AT TIME STEP    10, STRESS PERIOD    3

  HEAD DEP BOUNDS   PERIOD    3   STEP    10
 BOUNDARY      1   LAYER   1   ROW    13   COL     1   RATE   -0.291391    
 BOUNDARY      2   LAYER   1   ROW    14   COL     9   RATE    0.289349    



 STREAM LISTING     PERIOD      3   STEP       10

 LAYER ROW COL. STREAM  RCH.  FLOW INTO     FLOW TO   FLOW OUT OF   OVRLND.     DIRECT     STREAM       STREAM     STREAM     STREAM   STREAMBED  STREAMBED
                SEG.NO.  NO.  STRM. RCH.    AQUIFER    STRM. RCH.    RUNOFF     PRECIP       ET          HEAD       DEPTH      WIDTH   CONDCTNC.   GRADIENT

   1    1    1     1     1    4.2000E+01  3.1070E-01   4.1689E+01  0.000E+00  0.000E+00  0.000E+00  1.09439E+03  1.346E+00  1.589E+01  7.149E-02  1.449E+00
   1    2    2     1     2    4.1689E+01  4.8125E-01   4.1208E+01  0.000E+00  0.000E+00  0.000E+00  1.08940E+03  1.343E+00  1.583E+01  1.108E-01  1.448E+00
   1    3    3     1     3    4.1208E+01  4.1050E-01   4.0798E+01  0.000E+00  0.000E+00  0.000E+00  1.08376E+03  1.340E+00  1.577E+01  9.459E-02  1.447E+00
   1    3    4     1     4    4.0798E+01  3.7807E-01   4.0419E+01  0.000E+00  0.000E+00  0.000E+00  1.07874E+03  1.337E+00  1.571E+01  8.718E-02  1.446E+00
   1    4    5     2     1    3.8419E+01  0.0000E+00   3.8419E+01  0.000E+00  0.000E+00  0.000E+00  1.07350E+03  1.563E+00  1.200E+01  0.000E+00  1.521E+00
   1    5    6     2     2    3.8419E+01  0.0000E+00   3.8419E+01  0.000E+00  0.000E+00  0.000E+00  1.06807E+03  1.563E+00  1.200E+01  0.000E+00  1.521E+00
   1    6    6     2     3    3.8419E+01  0.0000E+00   3.8419E+01  0.000E+00  0.000E+00  0.000E+00  1.06336E+03  1.563E+00  1.200E+01  0.000E+00  1.521E+00
   1    7    6     2     4    3.8419E+01  0.0000E+00   3.8419E+01  0.000E+00  0.000E+00  0.000E+00  1.05864E+03  1.563E+00  1.200E+01  0.000E+00  1.521E+00
   1    8    6     2     5    3.8419E+01  0.0000E+00   3.8419E+01  0.000E+00  0.000E+00  0.000E+00  1.05392E+03  1.563E+00  1.200E+01  0.000E+00  1.521E+00
   1    3    5     3     1    2.0000E+00  2.8252E-01   1.7175E+00  0.000E+00  0.000E+00  0.000E+00  1.07555E+03  1.909E+00  9.636E+00  7.227E-02  1.955E+00
   1    3    6     3     2    1.7175E+00  2.4905E-01   1.4684E+00  0.000E+00  0.000E+00  0.000E+00  1.07264E+03  1.727E+00  8.909E+00  6.682E-02  1.864E+00
   1    3    7     3     3    1.4684E+00  1.9718E-01   1.2712E+00  0.000E+00  0.000E+00  0.000E+00  1.06987E+03  1.555E+00  8.218E+00  5.547E-02  1.777E+00
   1    4    8     3     4    1.2712E+00  2.2567E-01   1.0456E+00  0.000E+00  0.000E+00  0.000E+00  1.06682E+03  1.364E+00  7.455E+00  6.709E-02  1.682E+00
   1    5    8     3     5    1.0456E+00  1.5790E-01   8.8768E-01  0.000E+00  0.000E+00  0.000E+00  1.06362E+03  1.164E+00  6.655E+00  4.991E-02  1.582E+00
   1    6    8     3     6    8.8768E-01  5.5980E-02   8.3170E-01  0.000E+00  0.000E+00  0.000E+00  1.06158E+03  1.036E+00  6.145E+00  1.844E-02  1.518E+00
   1    5   10     4     1    1.0000E+01  0.0000E+00   1.0000E+01  0.000E+00  0.000E+00  0.000E+00  1.07837E+03  6.385E-01  1.000E+01  0.000E+00  1.213E+00
   1    5    9     4     2    1.0000E+01  0.0000E+00   1.0000E+01  0.000E+00  0.000E+00  0.000E+00  1.07155E+03  6.385E-01  1.000E+01  0.000E+00  1.213E+00
   1    6    8     4     3    1.0000E+01  0.0000E+00   1.0000E+01  0.000E+00  0.000E+00  0.000E+00  1.06382E+03  6.385E-01  1.000E+01  0.000E+00  1.213E+00
   1    6    8     5     1    1.0832E+01  2.3262E-01   1.0599E+01  0.000E+00  0.000E+00  0.000E+00  1.05869E+03  6.881E-01  1.577E+01  6.307E-02  1.229E+00
   1    7    7     5     2    1.0599E+01  2.8607E-01   1.0313E+01  0.000E+00  0.000E+00  0.000E+00  1.05418E+03  6.822E-01  1.554E+01  7.769E-02  1.227E+00
   1    8    7     5     3    1.0313E+01  1.9716E-01   1.0116E+01  0.000E+00  0.000E+00  0.000E+00  1.04993E+03  6.766E-01  1.532E+01  5.363E-02  1.226E+00
   1    8    6     5     4    1.0116E+01  1.3929E-01   9.9766E+00  0.000E+00  0.000E+00  0.000E+00  1.04692E+03  6.727E-01  1.517E+01  3.792E-02  1.224E+00
   1    9    6     6     1    4.8396E+01  0.0000E+00   4.8396E+01  0.000E+00  0.000E+00  0.000E+00  1.04454E+03  1.815E+00  1.200E+01  0.000E+00  1.605E+00
   1   10    7     6     2    4.8396E+01  0.0000E+00   4.8396E+01  0.000E+00  0.000E+00  0.000E+00  1.04000E+03  1.815E+00  1.200E+01  0.000E+00  1.605E+00
   1   11    7     6     3    4.8396E+01  0.0000E+00   4.8396E+01  0.000E+00  0.000E+00  0.000E+00  1.03545E+03  1.815E+00  1.200E+01  0.000E+00  1.605E+00
   1   12    7     6     4    4.8396E+01  0.0000E+00   4.8396E+01  0.000E+00  0.000E+00  0.000E+00  1.03091E+03  1.815E+00  1.200E+01  0.000E+00  1.605E+00
   1   13    7     6     5    4.8396E+01  0.0000E+00   4.8396E+01  0.000E+00  0.000E+00  0.000E+00  1.02772E+03  1.815E+00  1.200E+01  0.000E+00  4.946E-01
   1   14    9     7     1    1.5000E+02  1.3886E+00   1.4861E+02  0.000E+00  0.000E+00  0.000E+00  1.03987E+03  2.288E+00  5.529E+01  5.593E-01  8.276E-01
   1   13    8     7     2    1.4861E+02  2.0910E+00   1.4652E+02  0.000E+00  0.000E+00  0.000E+00  1.03478E+03  2.278E+00  5.525E+01  6.147E-01  1.134E+00
   1   13    7     7     3    1.4652E+02  1.9243E+00   1.4460E+02  0.000E+00  0.000E+00  0.000E+00  1.02969E+03  2.268E+00  5.520E+01  5.583E-01  1.149E+00
   1   13    6     8     1    1.9299E+02  1.4376E+00   1.9155E+02  0.000E+00  0.000E+00  0.000E+00  1.02497E+03  3.092E+00  4.483E+01  4.568E-01  1.049E+00
   1   13    5     8     2    1.9155E+02  5.8720E-01   1.9097E+02  0.000E+00  0.000E+00  0.000E+00  1.01871E+03  3.086E+00  4.474E+01  4.559E-01  4.293E-01
   1   13    4     8     3    1.9097E+02 -1.1720E+00   1.9214E+02  0.000E+00  0.000E+00  0.000E+00  1.01246E+03  3.087E+00  4.477E+01  4.562E+00 -8.564E-02
   1   13    3     8     4    1.9214E+02 -3.0107E+00   1.9515E+02  0.000E+00  0.000E+00  0.000E+00  1.00622E+03  3.100E+00  4.495E+01  4.580E+00 -2.191E-01
   1   13    2     8     5    1.9515E+02 -2.4023E+00   1.9755E+02  0.000E+00  0.000E+00  0.000E+00  9.99991E+02  3.116E+00  4.518E+01  4.604E+00 -1.739E-01
   1   13    1     8     6    1.9755E+02 -1.8431E+00   1.9940E+02  0.000E+00  0.000E+00  0.000E+00  9.95004E+02  3.129E+00  4.537E+01  2.774E+00 -2.215E-01
   1    6    8     9     1    0.0000E+00  0.0000E+00   0.0000E+00  0.000E+00  0.000E+00  0.000E+00  1.07850E+03  0.000E+00  4.000E+00  0.000E+00  1.000E+00



 UBDSV3 SAVING "     NETRECHARGE" ON UNIT 100 AT TIME STEP    10, STRESS PERIOD   3
 UBDSV3 SAVING "    NETDISCHARGE" ON UNIT 101 AT TIME STEP    10, STRESS PERIOD   3
 UBDSV3 SAVING "           GW ET" ON UNIT  61 AT TIME STEP    10, STRESS PERIOD   3
 UBDSV3 SAVING "    UZF RECHARGE" ON UNIT  61 AT TIME STEP    10, STRESS PERIOD   3
 UBDSV3 SAVING " SURFACE LEAKAGE" ON UNIT  61 AT TIME STEP    10, STRESS PERIOD   3
 UBDSV3 SAVING "       HORT+DUNN" ON UNIT  61 AT TIME STEP    10, STRESS PERIOD   3
 UBDSV3 SAVING "  STORAGE CHANGE" ON UNIT  61 AT TIME STEP    10, STRESS PERIOD   3


UNSATURATED ZONE PACKAGE VOLUMETRIC BUDGET FOR  TIME STEP    10 STRESS PERIOD    3
  ------------------------------------------------------------------------------



     CUMULATIVE VOLUMES      L**3       RATES FOR THIS TIME STEP      L**3/T
     ------------------                 ------------------------

           IN:                                      IN:
           ---                                      ---
        INFILTRATION =     5196870.0000          INFILTRATION =           0.8475

          OUT:                                     OUT:
          ----                                     ----
              UZF ET =     1016289.5664                UZF ET =           0.2901
        UZF RECHARGE =   104746911.6577          UZF RECHARGE =          28.5929

            IN - OUT =  -100566331.2241              IN - OUT =         -28.0354

          STORAGE:                                 STORAGE:
          --------                                 --------
      STORAGE CHANGE =  -100565434.0858        STORAGE CHANGE =         -28.0354

 PERCENT DISCREPANCY IS DIFFERENCE BETWEEN IN-OUT MINUS CHANGE IN STORAGE
 DIVIDED BY THE AVERAGE OF IN AND OUT TIMES 100

 PERCENT DISCREPANCY =          -0.00     PERCENT DISCREPANCY =          -0.00






1
  VOLUMETRIC BUDGET FOR ENTIRE MODEL AT END OF TIME STEP   10, STRESS PERIOD   3
  ------------------------------------------------------------------------------

     CUMULATIVE VOLUMES      L**3       RATES FOR THIS TIME STEP      L**3/T
     ------------------                 ------------------------

           IN:                                      IN:
           ---                                      ---
             STORAGE =           0.0000               STORAGE =           0.0000
       CONSTANT HEAD =           0.0000         CONSTANT HEAD =           0.0000
               WELLS =           0.0000                 WELLS =           0.0000
     HEAD DEP BOUNDS =     1793312.0000       HEAD DEP BOUNDS =           0.2893
      STREAM LEAKAGE =    59624552.0000        STREAM LEAKAGE =          11.0326
        UZF RECHARGE =   104746904.0000          UZF RECHARGE =          28.5929
               GW ET =           0.0000                 GW ET =           0.0000
     SURFACE LEAKAGE =           0.0000       SURFACE LEAKAGE =           0.0000

            TOTAL IN =   166164768.0000              TOTAL IN =          39.9149

          OUT:                                     OUT:
          ----                                     ----
             STORAGE =   111581464.0000               STORAGE =          31.1929
       CONSTANT HEAD =           0.0000         CONSTANT HEAD =           0.0000
               WELLS =           0.0000                 WELLS =           0.0000
     HEAD DEP BOUNDS =     1750579.7500       HEAD DEP BOUNDS =           0.2914
      STREAM LEAKAGE =    49482056.0000        STREAM LEAKAGE =           8.4280
        UZF RECHARGE =           0.0000          UZF RECHARGE =           0.0000
               GW ET =     3341160.0000                 GW ET =       2.0399E-10
     SURFACE LEAKAGE =           0.0000       SURFACE LEAKAGE =           0.0000

           TOTAL OUT =   166155264.0000             TOTAL OUT =          39.9123

            IN - OUT =        9504.0000              IN - OUT =       2.5406E-03

 PERCENT DISCREPANCY =           0.01     PERCENT DISCREPANCY =           0.01






         TIME SUMMARY AT END OF TIME STEP   10 IN STRESS PERIOD    3
                    SECONDS     MINUTES      HOURS       DAYS        YEARS
                    -----------------------------------------------------------
   TIME STEP LENGTH  87600.      1460.0      24.333      1.0139     2.77588E-03
 STRESS PERIOD TIME 8.76000E+05  14600.      243.33      10.139     2.77588E-02
         TOTAL TIME 6.13200E+06 1.02200E+05  1703.3      70.972     0.19431    
1
 
 SOLVING FOR HEAD 
                                                   Max.-Head-Change                         Max.-Flux-Residual
  Residual-Control   Outer-Iter.   Inner-Iter.     Column Row Layer    Maximum-Head-Change  Column Row Layer    Maximum-Flux-Residual          L2-NORM 
          0                 1           2             2    2     1       0.1009264950E-01       2    2    1         0.5267654176E+00      0.1973532675E+01
          0                 2           2             7    3     1       0.4375778399E-02       7    3    1         0.1141731960E+00      0.5514953776E+00
          0                 3           2             7    3     1       0.1955479885E-02       7    3    1         0.5102242817E-01      0.2166201524E+00
          0                 4           2             7    3     1       0.8738782829E-03       7    3    1         0.2280129205E-01      0.9470805815E-01
          0                 5           2             7    3     1       0.3905233715E-03       7    3    1         0.1018959477E-01      0.4220656804E-01
          0                 6           2             7    3     1       0.1745184185E-03       7    3    1         0.4553577184E-02      0.1886593324E-01
          0                 7           1             7    3     1       0.7798904577E-04       7    3    1         0.2034916523E-02      0.8437188440E-02
          0                 8           1             7    3     1       0.3485171083E-04       7    3    1         0.9093657474E-03      0.3773760875E-02
          0                 9           1             7    3     1       0.1557445469E-04       7    3    1         0.4063766565E-03      0.1688040117E-02
          0                10           1             7    3     1       0.6959851258E-05       7    3    1         0.1816005600E-03      0.7551252736E-03

    ------------------------------------------------
       NWT REQUIRED           10 OUTER ITERATIONS 
       AND A TOTAL OF         16 INNER ITERATIONS.
    ------------------------------------------------

 NO OUTPUT CONTROL FOR STRESS PERIOD    3   TIME STEP   11
 
 SOLVING FOR HEAD 
                                                   Max.-Head-Change                         Max.-Flux-Residual
  Residual-Control   Outer-Iter.   Inner-Iter.     Column Row Layer    Maximum-Head-Change  Column Row Layer    Maximum-Flux-Residual          L2-NORM 
          0                 1           2             2    2     1       0.1002955024E-01       2    2    1         0.5234321568E+00      0.1965252612E+01
          0                 2           2             7    3     1       0.4348560397E-02       7    3    1         0.1134600966E+00      0.5497652252E+00
          0                 3           2             7    3     1       0.1943377161E-02       7    3    1         0.5070535358E-01      0.2159606798E+00
          0                 4           2             7    3     1       0.8684964478E-03       7    3    1         0.2266030087E-01      0.9442156128E-01
          0                 5           2             7    3     1       0.3881300642E-03       7    3    1         0.1012689831E-01      0.4208001326E-01
          0                 6           2             7    3     1       0.1734540611E-03       7    3    1         0.4525695756E-02      0.1880990588E-01
          0                 7           1             7    3     1       0.7751568011E-04       7    3    1         0.2022516925E-02      0.8412374953E-02
          0                 8           1             7    3     1       0.3464117498E-04       7    3    1         0.9038510605E-03      0.3762769576E-02
          0                 9           1             7    3     1       0.1548081161E-04       7    3    1         0.4039238971E-03      0.1683171268E-02
          0                10           1             7    3     1       0.6918198265E-05       7    3    1         0.1805095984E-03      0.7529678416E-03

    ------------------------------------------------
       NWT REQUIRED           10 OUTER ITERATIONS 
       AND A TOTAL OF         16 INNER ITERATIONS.
    ------------------------------------------------

 NO OUTPUT CONTROL FOR STRESS PERIOD    3   TIME STEP   12
 
 SOLVING FOR HEAD 
                                                   Max.-Head-Change                         Max.-Flux-Residual
  Residual-Control   Outer-Iter.   Inner-Iter.     Column Row Layer    Maximum-Head-Change  Column Row Layer    Maximum-Flux-Residual          L2-NORM 
          0                 1           2             2    2     1       0.9967857765E-02       2    2    1         0.5201733920E+00      0.1958833069E+01
          0                 2           2             7    3     1       0.4321716537E-02       7    3    1         0.1127568367E+00      0.5482626530E+00
          0                 3           2             7    3     1       0.1931440042E-02       7    3    1         0.5039263385E-01      0.2153271476E+00
          0                 4           2             7    3     1       0.8631879191E-03       7    3    1         0.2252123726E-01      0.9414002119E-01
          0                 5           2             7    3     1       0.3857692102E-03       7    3    1         0.1006505513E-01      0.4195513048E-01
          0                 6           2             7    3     1       0.1724040723E-03       7    3    1         0.4498192080E-02      0.1875457647E-01
          0                 7           1             7    3     1       0.7704867652E-04       7    3    1         0.2010284574E-02      0.8387863285E-02
          0                 8           1             7    3     1       0.3443345601E-04       7    3    1         0.8984104261E-03      0.3751909861E-02
          0                 9           1             7    3     1       0.1538841609E-04       7    3    1         0.4015039365E-03      0.1678359467E-02
          0                10           1             7    3     1       0.6877098017E-05       7    3    1         0.1794331677E-03      0.7508353136E-03

    ------------------------------------------------
       NWT REQUIRED           10 OUTER ITERATIONS 
       AND A TOTAL OF         16 INNER ITERATIONS.
    ------------------------------------------------

 NO OUTPUT CONTROL FOR STRESS PERIOD    3   TIME STEP   13
 
 SOLVING FOR HEAD 
                                                   Max.-Head-Change                         Max.-Flux-Residual
  Residual-Control   Outer-Iter.   Inner-Iter.     Column Row Layer    Maximum-Head-Change  Column Row Layer    Maximum-Flux-Residual          L2-NORM 
          0                 1           2             2    2     1       0.9907534178E-02       2    2    1         0.5169871084E+00      0.1952665876E+01
          0                 2           2             7    3     1       0.4295311794E-02       7    3    1         0.1120651107E+00      0.5467549387E+00
          0                 3           2             7    3     1       0.1919697576E-02       7    3    1         0.5008502664E-01      0.2147000886E+00
          0                 4           2             7    3     1       0.8579656850E-03       7    3    1         0.2238444000E-01      0.9386218423E-01
          0                 5           2             7    3     1       0.3834466148E-03       7    3    1         0.1000421668E-01      0.4183191713E-01
          0                 6           2             7    3     1       0.1713710476E-03       7    3    1         0.4471133876E-02      0.1869997734E-01
          0                 7           1             7    3     1       0.7658919527E-04       7    3    1         0.1998249742E-02      0.8363668681E-02
          0                 8           1             7    3     1       0.3422907302E-04       7    3    1         0.8930573823E-03      0.3741189036E-02
          0                 9           1             7    3     1       0.1529749997E-04       7    3    1         0.3991228187E-03      0.1673610178E-02
          0                10           1             7    3     1       0.6836653811E-05       7    3    1         0.1783739621E-03      0.7487306783E-03

    ------------------------------------------------
       NWT REQUIRED           10 OUTER ITERATIONS 
       AND A TOTAL OF         16 INNER ITERATIONS.
    ------------------------------------------------

 NO OUTPUT CONTROL FOR STRESS PERIOD    3   TIME STEP   14
 
 SOLVING FOR HEAD 
                                                   Max.-Head-Change                         Max.-Flux-Residual
  Residual-Control   Outer-Iter.   Inner-Iter.     Column Row Layer    Maximum-Head-Change  Column Row Layer    Maximum-Flux-Residual          L2-NORM 
          0                 1           2             2    2     1       0.9848623022E-02       2    2    1         0.5138755764E+00      0.1945753992E+01
          0                 2           2             7    3     1       0.4269188227E-02       7    3    1         0.1113807631E+00      0.5451451620E+00
          0                 3           2             7    3     1       0.1908079896E-02       7    3    1         0.4978069380E-01      0.2140687776E+00
          0                 4           2             7    3     1       0.8527988349E-03       7    3    1         0.2224909593E-01      0.9358596702E-01
          0                 5           2             7    3     1       0.3811486032E-03       7    3    1         0.9944023213E-02      0.4170970801E-01
          0                 6           2             7    3     1       0.1703489352E-03       7    3    1         0.4444361958E-02      0.1864583401E-01
          0                 7           1             7    3     1       0.7613455842E-04       7    3    1         0.1986342000E-02      0.8339677761E-02
          0                 8           1             7    3     1       0.3402684098E-04       7    3    1         0.8877607609E-03      0.3730554888E-02
          0                 9           1             7    3     1       0.1520753903E-04       7    3    1         0.3967667519E-03      0.1668895324E-02
          0                10           1             7    3     1       0.6796633918E-05       7    3    1         0.1773258800E-03      0.7466406904E-03

    ------------------------------------------------
       NWT REQUIRED           10 OUTER ITERATIONS 
       AND A TOTAL OF         16 INNER ITERATIONS.
    ------------------------------------------------

 OUTPUT CONTROL FOR STRESS PERIOD    3   TIME STEP   15
    PRINT BUDGET
    PRINT HEAD FOR ALL LAYERS
    SAVE HEAD FOR ALL LAYERS
    SAVE BUDGET
 UBUDSV SAVING "         STORAGE" ON UNIT102 AT TIME STEP    15, STRESS PERIOD    3
 UBUDSV SAVING "   CONSTANT HEAD" ON UNIT102 AT TIME STEP    15, STRESS PERIOD    3
 UBUDSV SAVING "FLOW RIGHT FACE " ON UNIT102 AT TIME STEP    15, STRESS PERIOD    3
 UBUDSV SAVING "FLOW FRONT FACE " ON UNIT102 AT TIME STEP    15, STRESS PERIOD    3

  HEAD DEP BOUNDS   PERIOD    3   STEP    15
 BOUNDARY      1   LAYER   1   ROW    13   COL     1   RATE   -0.291972    
 BOUNDARY      2   LAYER   1   ROW    14   COL     9   RATE    0.288871    



 STREAM LISTING     PERIOD      3   STEP       15

 LAYER ROW COL. STREAM  RCH.  FLOW INTO     FLOW TO   FLOW OUT OF   OVRLND.     DIRECT     STREAM       STREAM     STREAM     STREAM   STREAMBED  STREAMBED
                SEG.NO.  NO.  STRM. RCH.    AQUIFER    STRM. RCH.    RUNOFF     PRECIP       ET          HEAD       DEPTH      WIDTH   CONDCTNC.   GRADIENT

   1    1    1     1     1    4.2000E+01  3.1070E-01   4.1689E+01  0.000E+00  0.000E+00  0.000E+00  1.09439E+03  1.346E+00  1.589E+01  7.149E-02  1.449E+00
   1    2    2     1     2    4.1689E+01  4.8125E-01   4.1208E+01  0.000E+00  0.000E+00  0.000E+00  1.08940E+03  1.343E+00  1.583E+01  1.108E-01  1.448E+00
   1    3    3     1     3    4.1208E+01  4.1050E-01   4.0798E+01  0.000E+00  0.000E+00  0.000E+00  1.08376E+03  1.340E+00  1.577E+01  9.459E-02  1.447E+00
   1    3    4     1     4    4.0798E+01  3.7807E-01   4.0419E+01  0.000E+00  0.000E+00  0.000E+00  1.07874E+03  1.337E+00  1.571E+01  8.718E-02  1.446E+00
   1    4    5     2     1    3.8419E+01  0.0000E+00   3.8419E+01  0.000E+00  0.000E+00  0.000E+00  1.07350E+03  1.563E+00  1.200E+01  0.000E+00  1.521E+00
   1    5    6     2     2    3.8419E+01  0.0000E+00   3.8419E+01  0.000E+00  0.000E+00  0.000E+00  1.06807E+03  1.563E+00  1.200E+01  0.000E+00  1.521E+00
   1    6    6     2     3    3.8419E+01  0.0000E+00   3.8419E+01  0.000E+00  0.000E+00  0.000E+00  1.06336E+03  1.563E+00  1.200E+01  0.000E+00  1.521E+00
   1    7    6     2     4    3.8419E+01  0.0000E+00   3.8419E+01  0.000E+00  0.000E+00  0.000E+00  1.05864E+03  1.563E+00  1.200E+01  0.000E+00  1.521E+00
   1    8    6     2     5    3.8419E+01  0.0000E+00   3.8419E+01  0.000E+00  0.000E+00  0.000E+00  1.05392E+03  1.563E+00  1.200E+01  0.000E+00  1.521E+00
   1    3    5     3     1    2.0000E+00  2.8252E-01   1.7175E+00  0.000E+00  0.000E+00  0.000E+00  1.07555E+03  1.909E+00  9.636E+00  7.227E-02  1.955E+00
   1    3    6     3     2    1.7175E+00  2.4905E-01   1.4684E+00  0.000E+00  0.000E+00  0.000E+00  1.07264E+03  1.727E+00  8.909E+00  6.682E-02  1.864E+00
   1    3    7     3     3    1.4684E+00  1.9718E-01   1.2712E+00  0.000E+00  0.000E+00  0.000E+00  1.06987E+03  1.555E+00  8.218E+00  5.547E-02  1.777E+00
   1    4    8     3     4    1.2712E+00  2.2567E-01   1.0456E+00  0.000E+00  0.000E+00  0.000E+00  1.06682E+03  1.364E+00  7.455E+00  6.709E-02  1.682E+00
   1    5    8     3     5    1.0456E+00  1.5790E-01   8.8768E-01  0.000E+00  0.000E+00  0.000E+00  1.06362E+03  1.164E+00  6.655E+00  4.991E-02  1.582E+00
   1    6    8     3     6    8.8768E-01  5.5980E-02   8.3170E-01  0.000E+00  0.000E+00  0.000E+00  1.06158E+03  1.036E+00  6.145E+00  1.844E-02  1.518E+00
   1    5   10     4     1    1.0000E+01  0.0000E+00   1.0000E+01  0.000E+00  0.000E+00  0.000E+00  1.07837E+03  6.385E-01  1.000E+01  0.000E+00  1.213E+00
   1    5    9     4     2    1.0000E+01  0.0000E+00   1.0000E+01  0.000E+00  0.000E+00  0.000E+00  1.07155E+03  6.385E-01  1.000E+01  0.000E+00  1.213E+00
   1    6    8     4     3    1.0000E+01  0.0000E+00   1.0000E+01  0.000E+00  0.000E+00  0.000E+00  1.06382E+03  6.385E-01  1.000E+01  0.000E+00  1.213E+00
   1    6    8     5     1    1.0832E+01  2.3262E-01   1.0599E+01  0.000E+00  0.000E+00  0.000E+00  1.05869E+03  6.881E-01  1.577E+01  6.307E-02  1.229E+00
   1    7    7     5     2    1.0599E+01  2.8607E-01   1.0313E+01  0.000E+00  0.000E+00  0.000E+00  1.05418E+03  6.822E-01  1.554E+01  7.769E-02  1.227E+00
   1    8    7     5     3    1.0313E+01  1.9716E-01   1.0116E+01  0.000E+00  0.000E+00  0.000E+00  1.04993E+03  6.766E-01  1.532E+01  5.363E-02  1.226E+00
   1    8    6     5     4    1.0116E+01  1.3929E-01   9.9766E+00  0.000E+00  0.000E+00  0.000E+00  1.04692E+03  6.727E-01  1.517E+01  3.792E-02  1.224E+00
   1    9    6     6     1    4.8396E+01  0.0000E+00   4.8396E+01  0.000E+00  0.000E+00  0.000E+00  1.04454E+03  1.815E+00  1.200E+01  0.000E+00  1.605E+00
   1   10    7     6     2    4.8396E+01  0.0000E+00   4.8396E+01  0.000E+00  0.000E+00  0.000E+00  1.04000E+03  1.815E+00  1.200E+01  0.000E+00  1.605E+00
   1   11    7     6     3    4.8396E+01  0.0000E+00   4.8396E+01  0.000E+00  0.000E+00  0.000E+00  1.03545E+03  1.815E+00  1.200E+01  0.000E+00  1.605E+00
   1   12    7     6     4    4.8396E+01  0.0000E+00   4.8396E+01  0.000E+00  0.000E+00  0.000E+00  1.03091E+03  1.815E+00  1.200E+01  0.000E+00  1.605E+00
   1   13    7     6     5    4.8396E+01  0.0000E+00   4.8396E+01  0.000E+00  0.000E+00  0.000E+00  1.02772E+03  1.815E+00  1.200E+01  0.000E+00  4.889E-01
   1   14    9     7     1    1.5000E+02  1.3815E+00   1.4862E+02  0.000E+00  0.000E+00  0.000E+00  1.03987E+03  2.288E+00  5.529E+01  5.593E-01  8.234E-01
   1   13    8     7     2    1.4862E+02  2.0819E+00   1.4654E+02  0.000E+00  0.000E+00  0.000E+00  1.03478E+03  2.278E+00  5.525E+01  6.147E-01  1.129E+00
   1   13    7     7     3    1.4654E+02  1.9149E+00   1.4462E+02  0.000E+00  0.000E+00  0.000E+00  1.02969E+03  2.268E+00  5.520E+01  5.583E-01  1.143E+00
   1   13    6     8     1    1.9302E+02  1.4251E+00   1.9159E+02  0.000E+00  0.000E+00  0.000E+00  1.02497E+03  3.092E+00  4.483E+01  4.569E-01  1.040E+00
   1   13    5     8     2    1.9159E+02  5.7572E-01   1.9102E+02  0.000E+00  0.000E+00  0.000E+00  1.01871E+03  3.086E+00  4.474E+01  4.560E-01  4.209E-01
   1   13    4     8     3    1.9102E+02 -1.2445E+00   1.9226E+02  0.000E+00  0.000E+00  0.000E+00  1.01246E+03  3.088E+00  4.477E+01  4.563E+00 -9.092E-02
   1   13    3     8     4    1.9226E+02 -3.0765E+00   1.9534E+02  0.000E+00  0.000E+00  0.000E+00  1.00623E+03  3.101E+00  4.496E+01  4.582E+00 -2.238E-01
   1   13    2     8     5    1.9534E+02 -2.4714E+00   1.9781E+02  0.000E+00  0.000E+00  0.000E+00  9.99992E+02  3.117E+00  4.520E+01  4.606E+00 -1.788E-01
   1   13    1     8     6    1.9781E+02 -1.8819E+00   1.9969E+02  0.000E+00  0.000E+00  0.000E+00  9.95005E+02  3.130E+00  4.539E+01  2.775E+00 -2.260E-01
   1    6    8     9     1    0.0000E+00  0.0000E+00   0.0000E+00  0.000E+00  0.000E+00  0.000E+00  1.07850E+03  0.000E+00  4.000E+00  0.000E+00  1.000E+00



 UBDSV3 SAVING "     NETRECHARGE" ON UNIT 100 AT TIME STEP    15, STRESS PERIOD   3
 UBDSV3 SAVING "    NETDISCHARGE" ON UNIT 101 AT TIME STEP    15, STRESS PERIOD   3
 UBDSV3 SAVING "           GW ET" ON UNIT  61 AT TIME STEP    15, STRESS PERIOD   3
 UBDSV3 SAVING "    UZF RECHARGE" ON UNIT  61 AT TIME STEP    15, STRESS PERIOD   3
 UBDSV3 SAVING " SURFACE LEAKAGE" ON UNIT  61 AT TIME STEP    15, STRESS PERIOD   3
 UBDSV3 SAVING "       HORT+DUNN" ON UNIT  61 AT TIME STEP    15, STRESS PERIOD   3
 UBDSV3 SAVING "  STORAGE CHANGE" ON UNIT  61 AT TIME STEP    15, STRESS PERIOD   3


UNSATURATED ZONE PACKAGE VOLUMETRIC BUDGET FOR  TIME STEP    15 STRESS PERIOD    3
  ------------------------------------------------------------------------------



     CUMULATIVE VOLUMES      L**3       RATES FOR THIS TIME STEP      L**3/T
     ------------------                 ------------------------

           IN:                                      IN:
           ---                                      ---
        INFILTRATION =     5568075.0000          INFILTRATION =           0.8475

          OUT:                                     OUT:
          ----                                     ----
              UZF ET =     1143324.3362                UZF ET =           0.2901
        UZF RECHARGE =   117216994.3740          UZF RECHARGE =          28.3731

            IN - OUT =  -112792243.7102              IN - OUT =         -27.8156

          STORAGE:                                 STORAGE:
          --------                                 --------
      STORAGE CHANGE =  -112791333.1526        STORAGE CHANGE =         -27.8156

 PERCENT DISCREPANCY IS DIFFERENCE BETWEEN IN-OUT MINUS CHANGE IN STORAGE
 DIVIDED BY THE AVERAGE OF IN AND OUT TIMES 100

 PERCENT DISCREPANCY =          -0.00     PERCENT DISCREPANCY =          -0.00






1
              HEAD IN LAYER   1 AT END OF TIME STEP    15 IN STRESS PERIOD    3
  -----------------------------------------------------------------------------

           1       2       3       4       5       6       7       8       9      10
 ...................................................................................
   1  1021.17 1020.85 6999.00 6999.00 6999.00 6999.00 6999.00 6999.00 6999.00 6999.00
   2  1021.25 1020.99 1020.66 6999.00 6999.00 1021.71 1021.76 1021.76 6999.00 6999.00
   3  6999.00 1020.92 1020.78 1020.75 1021.19 1021.46 1021.59 1021.40 6999.00 6999.00
   4  1021.39 1020.97 1020.68 1020.47 1020.47 1020.53 1020.88 1021.49 1021.13 6999.00
   5  1021.30 1020.85 1020.57 1020.32 1020.34 1020.42 1020.58 1020.80 1020.78 1020.82
   6  1021.15 1020.66 1020.39 1020.16 1020.20 1020.34 1020.55 1020.82 1021.03 1021.30
   7  1020.99 1020.32 1020.11 1019.93 1020.02 1020.23 1020.56 1020.70 1021.26 6999.00
   8  6999.00 1019.68 1019.65 1019.59 1019.74 1020.06 1020.42 1020.95 1021.79 6999.00
   9  6999.00 1018.61 1018.82 1019.02 1019.32 1019.78 1020.25 1021.22 1022.64 6999.00
  10  6999.00 1016.82 1017.44 1018.16 1018.81 1019.65 1020.39 1021.84 1023.71 1024.36
  11  6999.00 1013.52 1014.81 1016.82 1018.21 1019.74 1021.11 1023.39 1025.92 6999.00
  12  1001.80 1007.38 1011.17 1014.68 1017.58 1020.33 1022.71 1026.83 1030.20 6999.00
  13   995.68 1000.53 1006.90 1012.74 1017.45 1021.85 1026.26 1031.39 1034.31 6999.00
  14  6999.00 1005.98 1008.95 1013.41 1017.80 1022.10 1027.16 1032.95 1037.40 6999.00
  15  6999.00 6999.00 1012.45 1015.03 1018.29 1021.20 6999.00 6999.00 6999.00 6999.00

 HEAD WILL BE SAVED ON UNIT   62 AT END OF TIME STEP   15, STRESS PERIOD    3
1
  VOLUMETRIC BUDGET FOR ENTIRE MODEL AT END OF TIME STEP   15, STRESS PERIOD   3
  ------------------------------------------------------------------------------

     CUMULATIVE VOLUMES      L**3       RATES FOR THIS TIME STEP      L**3/T
     ------------------                 ------------------------

           IN:                                      IN:
           ---                                      ---
             STORAGE =           0.0000               STORAGE =           0.0000
       CONSTANT HEAD =           0.0000         CONSTANT HEAD =           0.0000
               WELLS =           0.0000                 WELLS =           0.0000
     HEAD DEP BOUNDS =     1919920.8750       HEAD DEP BOUNDS =           0.2889
      STREAM LEAKAGE =    64443708.0000        STREAM LEAKAGE =          10.9831
        UZF RECHARGE =   117216984.0000          UZF RECHARGE =          28.3731
               GW ET =           0.0000                 GW ET =           0.0000
     SURFACE LEAKAGE =           0.0000       SURFACE LEAKAGE =           0.0000

            TOTAL IN =   183580608.0000              TOTAL IN =          39.6451

          OUT:                                     OUT:
          ----                                     ----
             STORAGE =   125108528.0000               STORAGE =          30.6762
       CONSTANT HEAD =           0.0000         CONSTANT HEAD =           0.0000
               WELLS =           0.0000                 WELLS =           0.0000
     HEAD DEP BOUNDS =     1878369.2500       HEAD DEP BOUNDS =           0.2920
      STREAM LEAKAGE =    53241940.0000        STREAM LEAKAGE =           8.6744
        UZF RECHARGE =           0.0000          UZF RECHARGE =           0.0000
               GW ET =     3341160.0000                 GW ET =       2.5058E-10
     SURFACE LEAKAGE =           0.0000       SURFACE LEAKAGE =           0.0000

           TOTAL OUT =   183569984.0000             TOTAL OUT =          39.6426

            IN - OUT =       10624.0000              IN - OUT =       2.5101E-03

 PERCENT DISCREPANCY =           0.01     PERCENT DISCREPANCY =           0.01






         TIME SUMMARY AT END OF TIME STEP   15 IN STRESS PERIOD    3
                    SECONDS     MINUTES      HOURS       DAYS        YEARS
                    -----------------------------------------------------------
   TIME STEP LENGTH  87600.      1460.0      24.333      1.0139     2.77588E-03
 STRESS PERIOD TIME 1.31400E+06  21900.      365.00      15.208     4.16381E-02
         TOTAL TIME 6.57000E+06 1.09500E+05  1825.0      76.042     0.20819    
1
 
 SOLVING FOR HEAD 
                                                   Max.-Head-Change                         Max.-Flux-Residual
  Residual-Control   Outer-Iter.   Inner-Iter.     Column Row Layer    Maximum-Head-Change  Column Row Layer    Maximum-Flux-Residual          L2-NORM 
          0                 1           2             2    2     1       0.9791006989E-02       2    2    1         0.5108326185E+00      0.1940727720E+01
          0                 2           2             7    3     1       0.4243486303E-02       7    3    1         0.1107074967E+00      0.5437452143E+00
          0                 3           2             7    3     1       0.1896648995E-02       7    3    1         0.4948126942E-01      0.2134607106E+00
          0                 4           2             7    3     1       0.8477147328E-03       7    3    1         0.2211592625E-01      0.9331470118E-01
          0                 5           2             7    3     1       0.3788872534E-03       7    3    1         0.9884793060E-02      0.4159019344E-01
          0                 6           2             7    3     1       0.1693430682E-03       7    3    1         0.4418016857E-02      0.1859248717E-01
          0                 7           1             7    3     1       0.7568712015E-04       7    3    1         0.1974623383E-02      0.8316022431E-02
          0                 8           1             7    3     1       0.3382779973E-04       7    3    1         0.8825479542E-03      0.3720070427E-02
          0                 9           1             7    3     1       0.1511899197E-04       7    3    1         0.3944478282E-03      0.1664246647E-02
          0                10           1             7    3     1       0.6757240803E-05       7    3    1         0.1762942617E-03      0.7445795504E-03

    ------------------------------------------------
       NWT REQUIRED           10 OUTER ITERATIONS 
       AND A TOTAL OF         16 INNER ITERATIONS.
    ------------------------------------------------

 NO OUTPUT CONTROL FOR STRESS PERIOD    3   TIME STEP   16
 
 SOLVING FOR HEAD 
                                                   Max.-Head-Change                         Max.-Flux-Residual
  Residual-Control   Outer-Iter.   Inner-Iter.     Column Row Layer    Maximum-Head-Change  Column Row Layer    Maximum-Flux-Residual          L2-NORM 
          0                 1           2             2    2     1       0.9734691778E-02       2    2    1         0.5078584950E+00      0.1936611275E+01
          0                 2           2             7    3     1       0.4218122294E-02       7    3    1         0.1100431016E+00      0.5424434137E+00
          0                 3           2             7    3     1       0.1885367983E-02       7    3    1         0.4918577977E-01      0.2128651466E+00
          0                 4           2             7    3     1       0.8426971194E-03       7    3    1         0.2198450189E-01      0.9304738534E-01
          0                 5           2             7    3     1       0.3766554002E-03       7    3    1         0.9826337137E-02      0.4147052182E-01
          0                 6           2             7    3     1       0.1683502874E-03       7    3    1         0.4392015229E-02      0.1853977964E-01
          0                 7           1             7    3     1       0.7524548907E-04       7    3    1         0.1963057153E-02      0.8292664912E-02
          0                 8           1             7    3     1       0.3363133426E-04       7    3    1         0.8774027498E-03      0.3709714302E-02
          0                 9           1             7    3     1       0.1503158829E-04       7    3    1         0.3921589017E-03      0.1659655747E-02
          0                10           1             7    3     1       0.6718354789E-05       7    3    1         0.1752759521E-03      0.7425452762E-03

    ------------------------------------------------
       NWT REQUIRED           10 OUTER ITERATIONS 
       AND A TOTAL OF         16 INNER ITERATIONS.
    ------------------------------------------------

 NO OUTPUT CONTROL FOR STRESS PERIOD    3   TIME STEP   17
 
 SOLVING FOR HEAD 
                                                   Max.-Head-Change                         Max.-Flux-Residual
  Residual-Control   Outer-Iter.   Inner-Iter.     Column Row Layer    Maximum-Head-Change  Column Row Layer    Maximum-Flux-Residual          L2-NORM 
          0                 1           2             2    2     1       0.9679643154E-02       2    2    1         0.5049514229E+00      0.1932975496E+01
          0                 2           2             7    3     1       0.4193161800E-02       7    3    1         0.1093893066E+00      0.5411766609E+00
          0                 3           2             7    3     1       0.1874265815E-02       7    3    1         0.4889498803E-01      0.2122780771E+00
          0                 4           2             7    3     1       0.8377587799E-03       7    3    1         0.2185515977E-01      0.9278345099E-01
          0                 5           2             7    3     1       0.3744586883E-03       7    3    1         0.9768804183E-02      0.4135321708E-01
          0                 6           2             7    3     1       0.1673730853E-03       7    3    1         0.4366422747E-02      0.1848775481E-01
          0                 7           1             7    3     1       0.7481076444E-04       7    3    1         0.1951672316E-02      0.8269598480E-02
          0                 8           1             7    3     1       0.3343793152E-04       7    3    1         0.8723379795E-03      0.3699485926E-02
          0                 9           1             7    3     1       0.1494554284E-04       7    3    1         0.3899056467E-03      0.1655119274E-02
          0                10           1             7    3     1       0.6680071292E-05       7    3    1         0.1742734642E-03      0.7405334315E-03

    ------------------------------------------------
       NWT REQUIRED           10 OUTER ITERATIONS 
       AND A TOTAL OF         16 INNER ITERATIONS.
    ------------------------------------------------

 NO OUTPUT CONTROL FOR STRESS PERIOD    3   TIME STEP   18
 
 SOLVING FOR HEAD 
                                                   Max.-Head-Change                         Max.-Flux-Residual
  Residual-Control   Outer-Iter.   Inner-Iter.     Column Row Layer    Maximum-Head-Change  Column Row Layer    Maximum-Flux-Residual          L2-NORM 
          0                 1           2             2    2     1       0.9625827864E-02       2    2    1         0.5021096130E+00      0.1929016995E+01
          0                 2           2             7    3     1       0.4168521221E-02       7    3    1         0.1087439130E+00      0.5398275709E+00
          0                 3           2             7    3     1       0.1863305493E-02       7    3    1         0.4860792112E-01      0.2116887848E+00
          0                 4           2             7    3     1       0.8328833374E-03       7    3    1         0.2172746920E-01      0.9252214816E-01
          0                 5           2             7    3     1       0.3722898688E-03       7    3    1         0.9712003582E-02      0.4123733795E-01
          0                 6           2             7    3     1       0.1664082543E-03       7    3    1         0.4341155047E-02      0.1843637555E-01
          0                 7           1             7    3     1       0.7438152650E-04       7    3    1         0.1940431512E-02      0.8246813813E-02
          0                 8           1             7    3     1       0.3324696261E-04       7    3    1         0.8673370917E-03      0.3689382093E-02
          0                 9           1             7    3     1       0.1486057699E-04       7    3    1         0.3876807249E-03      0.1650638158E-02
          0                10           1             7    3     1       0.6642266758E-05       7    3    1         0.1732835414E-03      0.7385444790E-03

    ------------------------------------------------
       NWT REQUIRED           10 OUTER ITERATIONS 
       AND A TOTAL OF         16 INNER ITERATIONS.
    ------------------------------------------------

 NO OUTPUT CONTROL FOR STRESS PERIOD    3   TIME STEP   19
 
 SOLVING FOR HEAD 
                                                   Max.-Head-Change                         Max.-Flux-Residual
  Residual-Control   Outer-Iter.   Inner-Iter.     Column Row Layer    Maximum-Head-Change  Column Row Layer    Maximum-Flux-Residual          L2-NORM 
          0                 1           2             2    2     1       0.9573213911E-02       2    2    1         0.4993313666E+00      0.1925189173E+01
          0                 2           2             7    3     1       0.4144192752E-02       7    3    1         0.1081067177E+00      0.5385631699E+00
          0                 3           2             7    3     1       0.1852483521E-02       7    3    1         0.4832448803E-01      0.2111146707E+00
          0                 4           2             7    3     1       0.8280692273E-03       7    3    1         0.2160138943E-01      0.9226470405E-01
          0                 5           2             7    3     1       0.3701482407E-03       7    3    1         0.9655917071E-02      0.4112292371E-01
          0                 6           2             7    3     1       0.1654554794E-03       7    3    1         0.4316203939E-02      0.1838561458E-01
          0                 7           1             7    3     1       0.7395763480E-04       7    3    1         0.1929331085E-02      0.8224301360E-02
          0                 8           1             7    3     1       0.3305836450E-04       7    3    1         0.8623984482E-03      0.3679396502E-02
          0                 9           1             7    3     1       0.1477666249E-04       7    3    1         0.3854834039E-03      0.1646209060E-02
          0                10           1             7    3     1       0.6604928180E-05       7    3    1         0.1723058610E-03      0.7365793062E-03

    ------------------------------------------------
       NWT REQUIRED           10 OUTER ITERATIONS 
       AND A TOTAL OF         16 INNER ITERATIONS.
    ------------------------------------------------

 NO OUTPUT CONTROL FOR STRESS PERIOD    3   TIME STEP   20
 
 SOLVING FOR HEAD 
                                                   Max.-Head-Change                         Max.-Flux-Residual
  Residual-Control   Outer-Iter.   Inner-Iter.     Column Row Layer    Maximum-Head-Change  Column Row Layer    Maximum-Flux-Residual          L2-NORM 
          0                 1           2             2    2     1       0.9521770046E-02       2    2    1         0.4966150423E+00      0.1922281928E+01
          0                 2           2             7    3     1       0.4120169548E-02       7    3    1         0.1074775319E+00      0.5373815577E+00
          0                 3           2             7    3     1       0.1841797045E-02       7    3    1         0.4804460992E-01      0.2105520670E+00
          0                 4           2             7    3     1       0.8233152632E-03       7    3    1         0.2147688760E-01      0.9201088703E-01
          0                 5           2             7    3     1       0.3680333135E-03       7    3    1         0.9600531014E-02      0.4101002443E-01
          0                 6           2             7    3     1       0.1645145580E-03       7    3    1         0.4291563783E-02      0.1833552079E-01
          0                 7           1             7    3     1       0.7353900644E-04       7    3    1         0.1918368716E-02      0.8202079320E-02
          0                 8           1             7    3     1       0.3287210355E-04       7    3    1         0.8575211025E-03      0.3669538734E-02
          0                 9           1             7    3     1       0.1469378544E-04       7    3    1         0.3833132980E-03      0.1641835322E-02
          0                10           1             7    3     1       0.6568050683E-05       7    3    1         0.1713402680E-03      0.7346388589E-03

    ------------------------------------------------
       NWT REQUIRED           10 OUTER ITERATIONS 
       AND A TOTAL OF         16 INNER ITERATIONS.
    ------------------------------------------------

 NO OUTPUT CONTROL FOR STRESS PERIOD    3   TIME STEP   21
 
 SOLVING FOR HEAD 
                                                   Max.-Head-Change                         Max.-Flux-Residual
  Residual-Control   Outer-Iter.   Inner-Iter.     Column Row Layer    Maximum-Head-Change  Column Row Layer    Maximum-Flux-Residual          L2-NORM 
          0                 1           2             2    2     1       0.9471465931E-02       2    2    1         0.4939590151E+00      0.1919548906E+01
          0                 2           2             7    3     1       0.4096517867E-02       7    3    1         0.1068581074E+00      0.5362233628E+00
          0                 3           2             7    3     1       0.1831275204E-02       7    3    1         0.4776905709E-01      0.2099971024E+00
          0                 4           2             7    3     1       0.8186342599E-03       7    3    1         0.2135430248E-01      0.9176029895E-01
          0                 5           2             7    3     1       0.3659507221E-03       7    3    1         0.9545994392E-02      0.4089853826E-01
          0                 6           2             7    3     1       0.1635879699E-03       7    3    1         0.4267300114E-02      0.1828604022E-01
          0                 7           1             7    3     1       0.7312673127E-04       7    3    1         0.1907573218E-02      0.8180127753E-02
          0                 8           1             7    3     1       0.3268865886E-04       7    3    1         0.8527177272E-03      0.3659799169E-02
          0                 9           1             7    3     1       0.1461215707E-04       7    3    1         0.3811759877E-03      0.1637513940E-02
          0                10           1             7    3     1       0.6531727181E-05       7    3    1         0.1703892160E-03      0.7327208265E-03

    ------------------------------------------------
       NWT REQUIRED           10 OUTER ITERATIONS 
       AND A TOTAL OF         16 INNER ITERATIONS.
    ------------------------------------------------

 NO OUTPUT CONTROL FOR STRESS PERIOD    3   TIME STEP   22
 
 SOLVING FOR HEAD 
                                                   Max.-Head-Change                         Max.-Flux-Residual
  Residual-Control   Outer-Iter.   Inner-Iter.     Column Row Layer    Maximum-Head-Change  Column Row Layer    Maximum-Flux-Residual          L2-NORM 
          0                 1           2             2    2     1       0.9422272294E-02       2    2    1         0.4913617393E+00      0.1916946084E+01
          0                 2           2             7    3     1       0.4073229070E-02       7    3    1         0.1062482105E+00      0.5350839109E+00
          0                 3           2             7    3     1       0.1820914305E-02       7    3    1         0.4749772964E-01      0.2094503468E+00
          0                 4           2             7    3     1       0.8140246410E-03       7    3    1         0.2123359138E-01      0.9151310163E-01
          0                 5           2             7    3     1       0.3638997954E-03       7    3    1         0.9492288984E-02      0.4078860039E-01
          0                 6           2             7    3     1       0.1626754279E-03       7    3    1         0.4243405142E-02      0.1823724859E-01
          0                 7           1             7    3     1       0.7272068700E-04       7    3    1         0.1896941277E-02      0.8158476302E-02
          0                 8           1             7    3     1       0.3250797889E-04       7    3    1         0.8479869192E-03      0.3650192395E-02
          0                 9           1             7    3     1       0.1453175613E-04       7    3    1         0.3790708767E-03      0.1633251063E-02
          0                10           1             7    3     1       0.6495947671E-05       7    3    1         0.1694524429E-03      0.7308362498E-03

    ------------------------------------------------
       NWT REQUIRED           10 OUTER ITERATIONS 
       AND A TOTAL OF         16 INNER ITERATIONS.
    ------------------------------------------------

 NO OUTPUT CONTROL FOR STRESS PERIOD    3   TIME STEP   23
 
 SOLVING FOR HEAD 
                                                   Max.-Head-Change                         Max.-Flux-Residual
  Residual-Control   Outer-Iter.   Inner-Iter.     Column Row Layer    Maximum-Head-Change  Column Row Layer    Maximum-Flux-Residual          L2-NORM 
          0                 1           2             2    2     1       0.9374160253E-02       2    2    1         0.4888217000E+00      0.1914332338E+01
          0                 2           2             7    3     1       0.4050221308E-02       7    3    1         0.1056456838E+00      0.5339553429E+00
          0                 3           2             7    3     1       0.1810678221E-02       7    3    1         0.4722967536E-01      0.2089095008E+00
          0                 4           2             7    3     1       0.8094704597E-03       7    3    1         0.2111433401E-01      0.9126915959E-01
          0                 5           2             7    3     1       0.3618734927E-03       7    3    1         0.9439229259E-02      0.4067998368E-01
          0                 6           2             7    3     1       0.1617738236E-03       7    3    1         0.4219796978E-02      0.1818902722E-01
          0                 7           1             7    3     1       0.7231950276E-04       7    3    1         0.1886436751E-02      0.8137078100E-02
          0                 8           1             7    3     1       0.3232945763E-04       7    3    1         0.8433127059E-03      0.3640695824E-02
          0                 9           1             7    3     1       0.1445231361E-04       7    3    1         0.3769909068E-03      0.1629035565E-02
          0                10           1             7    3     1       0.6460594475E-05       7    3    1         0.1685268491E-03      0.7289579657E-03

    ------------------------------------------------
       NWT REQUIRED           10 OUTER ITERATIONS 
       AND A TOTAL OF         16 INNER ITERATIONS.
    ------------------------------------------------

 NO OUTPUT CONTROL FOR STRESS PERIOD    3   TIME STEP   24
 
 SOLVING FOR HEAD 
                                                   Max.-Head-Change                         Max.-Flux-Residual
  Residual-Control   Outer-Iter.   Inner-Iter.     Column Row Layer    Maximum-Head-Change  Column Row Layer    Maximum-Flux-Residual          L2-NORM 
          0                 1           2             2    2     1       0.9327102205E-02       2    2    1         0.4863373991E+00      0.1911198958E+01
          0                 2           2             7    3     1       0.4027487594E-02       7    3    1         0.1050503559E+00      0.5327457547E+00
          0                 3           2             7    3     1       0.1800563607E-02       7    3    1         0.4696481170E-01      0.2083668865E+00
          0                 4           2             7    3     1       0.8049701225E-03       7    3    1         0.2099649086E-01      0.9102714298E-01
          0                 5           2             7    3     1       0.3598710598E-03       7    3    1         0.9386796439E-02      0.4057248192E-01
          0                 6           2             7    3     1       0.1608828031E-03       7    3    1         0.4196466741E-02      0.1814131089E-01
          0                 7           1             7    3     1       0.7192301022E-04       7    3    1         0.1876055439E-02      0.8115900191E-02
          0                 8           1             7    3     1       0.3215301755E-04       7    3    1         0.8386931359E-03      0.3631295611E-02
          0                 9           1             7    3     1       0.1437379400E-04       7    3    1         0.3749351671E-03      0.1624865293E-02
          0                10           1             7    3     1       0.6425650460E-05       7    3    1         0.1676119994E-03      0.7271122161E-03

    ------------------------------------------------
       NWT REQUIRED           10 OUTER ITERATIONS 
       AND A TOTAL OF         16 INNER ITERATIONS.
    ------------------------------------------------

 NO OUTPUT CONTROL FOR STRESS PERIOD    3   TIME STEP   25
 
 SOLVING FOR HEAD 
                                                   Max.-Head-Change                         Max.-Flux-Residual
  Residual-Control   Outer-Iter.   Inner-Iter.     Column Row Layer    Maximum-Head-Change  Column Row Layer    Maximum-Flux-Residual          L2-NORM 
          0                 1           2             2    2     1       0.9281071244E-02       2    2    1         0.4839074373E+00      0.1908440450E+01
          0                 2           2             7    3     1       0.4005095465E-02       7    3    1         0.1044639980E+00      0.5316190799E+00
          0                 3           2             7    3     1       0.1790600457E-02       7    3    1         0.4670392525E-01      0.2078369391E+00
          0                 4           2             7    3     1       0.8005369529E-03       7    3    1         0.2088041130E-01      0.9078825009E-01
          0                 5           2             7    3     1       0.3578984151E-03       7    3    1         0.9335145698E-02      0.4046617623E-01
          0                 6           2             7    3     1       0.1600049935E-03       7    3    1         0.4173483342E-02      0.1809409418E-01
          0                 7           1             7    3     1       0.7153237829E-04       7    3    1         0.1865827957E-02      0.8094941272E-02
          0                 8           1             7    3     1       0.3197917611E-04       7    3    1         0.8341417848E-03      0.3621992172E-02
          0                 9           1             7    3     1       0.1429642727E-04       7    3    1         0.3729096875E-03      0.1620732752E-02
          0                10           1             7    3     1       0.6391217923E-05       7    3    1         0.1667105724E-03      0.7252719837E-03

    ------------------------------------------------
       NWT REQUIRED           10 OUTER ITERATIONS 
       AND A TOTAL OF         16 INNER ITERATIONS.
    ------------------------------------------------

 NO OUTPUT CONTROL FOR STRESS PERIOD    3   TIME STEP   26
 
 SOLVING FOR HEAD 
                                                   Max.-Head-Change                         Max.-Flux-Residual
  Residual-Control   Outer-Iter.   Inner-Iter.     Column Row Layer    Maximum-Head-Change  Column Row Layer    Maximum-Flux-Residual          L2-NORM 
          0                 1           2             2    2     1       0.9236041168E-02       2    2    1         0.4815304149E+00      0.1905898915E+01
          0                 2           2             7    3     1       0.3982962954E-02       7    3    1         0.1038844554E+00      0.5305373735E+00
          0                 3           2             7    3     1       0.1780752475E-02       7    3    1         0.4644606188E-01      0.2073165766E+00
          0                 4           2             7    3     1       0.7961548752E-03       7    3    1         0.2076567280E-01      0.9055252517E-01
          0                 5           2             7    3     1       0.3559484382E-03       7    3    1         0.9284089907E-02      0.4036117166E-01
          0                 6           2             7    3     1       0.1591372420E-03       7    3    1         0.4150763909E-02      0.1804747210E-01
          0                 7           1             7    3     1       0.7114620884E-04       7    3    1         0.1855717599E-02      0.8074241159E-02
          0                 8           1             7    3     1       0.3180731569E-04       7    3    1         0.8296424159E-03      0.3612801785E-02
          0                 9           1             7    3     1       0.1421994006E-04       7    3    1         0.3709072784E-03      0.1616651857E-02
          0                10           1             7    3     1       0.6357175434E-05       7    3    1         0.1658193788E-03      0.7234646280E-03

    ------------------------------------------------
       NWT REQUIRED           10 OUTER ITERATIONS 
       AND A TOTAL OF         16 INNER ITERATIONS.
    ------------------------------------------------

 NO OUTPUT CONTROL FOR STRESS PERIOD    3   TIME STEP   27
 
 SOLVING FOR HEAD 
                                                   Max.-Head-Change                         Max.-Flux-Residual
  Residual-Control   Outer-Iter.   Inner-Iter.     Column Row Layer    Maximum-Head-Change  Column Row Layer    Maximum-Flux-Residual          L2-NORM 
          0                 1           2             2    2     1       0.9191986562E-02       2    2    1         0.4792049858E+00      0.1903989841E+01
          0                 2           2             7    3     1       0.3961158790E-02       7    3    1         0.1033135246E+00      0.5295050330E+00
          0                 3           2             7    3     1       0.1771050301E-02       7    3    1         0.4619202263E-01      0.2068031984E+00
          0                 4           2             7    3     1       0.7918375506E-03       7    3    1         0.2065263250E-01      0.9031986099E-01
          0                 5           2             7    3     1       0.3540272199E-03       7    3    1         0.9233788287E-02      0.4025753647E-01
          0                 6           2             7    3     1       0.1582822637E-03       7    3    1         0.4128379427E-02      0.1800143725E-01
          0                 7           1             7    3     1       0.7076571329E-04       7    3    1         0.1845756013E-02      0.8053804118E-02
          0                 8           1             7    3     1       0.3163797538E-04       7    3    1         0.8252091252E-03      0.3603726311E-02
          0                 9           1             7    3     1       0.1414457210E-04       7    3    1         0.3689342226E-03      0.1612621888E-02
          0                10           1             7    3     1       0.6323630291E-05       7    3    1         0.1649412313E-03      0.7216700486E-03

    ------------------------------------------------
       NWT REQUIRED           10 OUTER ITERATIONS 
       AND A TOTAL OF         16 INNER ITERATIONS.
    ------------------------------------------------

 NO OUTPUT CONTROL FOR STRESS PERIOD    3   TIME STEP   28
 
 SOLVING FOR HEAD 
                                                   Max.-Head-Change                         Max.-Flux-Residual
  Residual-Control   Outer-Iter.   Inner-Iter.     Column Row Layer    Maximum-Head-Change  Column Row Layer    Maximum-Flux-Residual          L2-NORM 
          0                 1           2             2    2     1       0.9148922832E-02       2    2    1         0.4769319512E+00      0.1902149355E+01
          0                 2           2             7    3     1       0.3939675060E-02       7    3    1         0.1027510085E+00      0.5284887420E+00
          0                 3           2             7    3     1       0.1761490209E-02       7    3    1         0.4594171430E-01      0.2062978368E+00
          0                 4           2             7    3     1       0.7875832296E-03       7    3    1         0.2054124652E-01      0.9009047414E-01
          0                 5           2             7    3     1       0.3521339409E-03       7    3    1         0.9184220255E-02      0.4015533330E-01
          0                 6           2             7    3     1       0.1574396763E-03       7    3    1         0.4106320268E-02      0.1795603597E-01
          0                 7           1             7    3     1       0.7039071304E-04       7    3    1         0.1835938707E-02      0.8033639277E-02
          0                 8           1             7    3     1       0.3147107290E-04       7    3    1         0.8208398306E-03      0.3594771503E-02
          0                 9           1             7    3     1       0.1407028562E-04       7    3    1         0.3669895494E-03      0.1608644998E-02
          0                10           1             7    3     1       0.6290564860E-05       7    3    1         0.1640756698E-03      0.7199033297E-03

    ------------------------------------------------
       NWT REQUIRED           10 OUTER ITERATIONS 
       AND A TOTAL OF         16 INNER ITERATIONS.
    ------------------------------------------------

 NO OUTPUT CONTROL FOR STRESS PERIOD    3   TIME STEP   29
 
 SOLVING FOR HEAD 
                                                   Max.-Head-Change                         Max.-Flux-Residual
  Residual-Control   Outer-Iter.   Inner-Iter.     Column Row Layer    Maximum-Head-Change  Column Row Layer    Maximum-Flux-Residual          L2-NORM 
          0                 1           2             2    2     1       0.9263003888E-02       2    2    1         0.4829006573E+00      0.1911987436E+01
          0                 2           2             7    3     1       0.3918430401E-02       7    3    1         0.1021947666E+00      0.5284590195E+00
          0                 3           2             7    3     1       0.1752036211E-02       7    3    1         0.4569418997E-01      0.2058782804E+00
          0                 4           2             7    3     1       0.7833759977E-03       7    3    1         0.2043109605E-01      0.8987418123E-01
          0                 5           2             7    3     1       0.3502615653E-03       7    3    1         0.9135200611E-02      0.4005726754E-01
          0                 6           2             7    3     1       0.1566063692E-03       7    3    1         0.4084504547E-02      0.1791235150E-01
          0                 7           1             7    3     1       0.7001983376E-04       7    3    1         0.1826229483E-02      0.8014228491E-02
          0                 8           1             7    3     1       0.3130600024E-04       7    3    1         0.8165185280E-03      0.3586149690E-02
          0                 9           1             7    3     1       0.1399681213E-04       7    3    1         0.3650661932E-03      0.1604814813E-02
          0                10           1             7    3     1       0.6257860340E-05       7    3    1         0.1632195750E-03      0.7182023862E-03

    ------------------------------------------------
       NWT REQUIRED           10 OUTER ITERATIONS 
       AND A TOTAL OF         16 INNER ITERATIONS.
    ------------------------------------------------

 NO OUTPUT CONTROL FOR STRESS PERIOD    3   TIME STEP   30



 STREAM LISTING     PERIOD      3   STEP       30

 LAYER ROW COL. STREAM  RCH.  FLOW INTO     FLOW TO   FLOW OUT OF   OVRLND.     DIRECT     STREAM       STREAM     STREAM     STREAM   STREAMBED  STREAMBED
                SEG.NO.  NO.  STRM. RCH.    AQUIFER    STRM. RCH.    RUNOFF     PRECIP       ET          HEAD       DEPTH      WIDTH   CONDCTNC.   GRADIENT

   1    1    1     1     1    4.3598E+01  3.1596E-01   4.3282E+01  0.000E+00  0.000E+00  0.000E+00  1.09440E+03  1.357E+00  1.612E+01  7.252E-02  1.452E+00
   1    2    2     1     2    4.3282E+01  4.8944E-01   4.2793E+01  0.000E+00  0.000E+00  0.000E+00  1.08941E+03  1.354E+00  1.606E+01  1.124E-01  1.451E+00
   1    3    3     1     3    4.2793E+01  4.1753E-01   4.2375E+01  0.000E+00  0.000E+00  0.000E+00  1.08377E+03  1.351E+00  1.599E+01  9.596E-02  1.450E+00
   1    3    4     1     4    4.2375E+01  3.8458E-01   4.1991E+01  0.000E+00  0.000E+00  0.000E+00  1.07876E+03  1.348E+00  1.594E+01  8.845E-02  1.449E+00
   1    4    5     2     1    3.9991E+01  0.0000E+00   3.9991E+01  0.000E+00  0.000E+00  0.000E+00  1.07353E+03  1.601E+00  1.200E+01  0.000E+00  1.534E+00
   1    5    6     2     2    3.9991E+01  0.0000E+00   3.9991E+01  0.000E+00  0.000E+00  0.000E+00  1.06811E+03  1.601E+00  1.200E+01  0.000E+00  1.534E+00
   1    6    6     2     3    3.9991E+01  0.0000E+00   3.9991E+01  0.000E+00  0.000E+00  0.000E+00  1.06339E+03  1.601E+00  1.200E+01  0.000E+00  1.534E+00
   1    7    6     2     4    3.9991E+01  0.0000E+00   3.9991E+01  0.000E+00  0.000E+00  0.000E+00  1.05868E+03  1.601E+00  1.200E+01  0.000E+00  1.534E+00
   1    8    6     2     5    3.9991E+01  0.0000E+00   3.9991E+01  0.000E+00  0.000E+00  0.000E+00  1.05396E+03  1.601E+00  1.200E+01  0.000E+00  1.534E+00
   1    3    5     3     1    2.0000E+00  2.8252E-01   1.7175E+00  0.000E+00  0.000E+00  0.000E+00  1.07555E+03  1.909E+00  9.636E+00  7.227E-02  1.955E+00
   1    3    6     3     2    1.7175E+00  2.4905E-01   1.4684E+00  0.000E+00  0.000E+00  0.000E+00  1.07264E+03  1.727E+00  8.909E+00  6.682E-02  1.864E+00
   1    3    7     3     3    1.4684E+00  1.9718E-01   1.2712E+00  0.000E+00  0.000E+00  0.000E+00  1.06987E+03  1.555E+00  8.218E+00  5.547E-02  1.777E+00
   1    4    8     3     4    1.2712E+00  2.2567E-01   1.0456E+00  0.000E+00  0.000E+00  0.000E+00  1.06682E+03  1.364E+00  7.455E+00  6.709E-02  1.682E+00
   1    5    8     3     5    1.0456E+00  1.5790E-01   8.8768E-01  0.000E+00  0.000E+00  0.000E+00  1.06362E+03  1.164E+00  6.655E+00  4.991E-02  1.582E+00
   1    6    8     3     6    8.8768E-01  5.5980E-02   8.3170E-01  0.000E+00  0.000E+00  0.000E+00  1.06158E+03  1.036E+00  6.145E+00  1.844E-02  1.518E+00
   1    5   10     4     1    1.0000E+01  0.0000E+00   1.0000E+01  0.000E+00  0.000E+00  0.000E+00  1.07837E+03  6.385E-01  1.000E+01  0.000E+00  1.213E+00
   1    5    9     4     2    1.0000E+01  0.0000E+00   1.0000E+01  0.000E+00  0.000E+00  0.000E+00  1.07155E+03  6.385E-01  1.000E+01  0.000E+00  1.213E+00
   1    6    8     4     3    1.0000E+01  0.0000E+00   1.0000E+01  0.000E+00  0.000E+00  0.000E+00  1.06382E+03  6.385E-01  1.000E+01  0.000E+00  1.213E+00
   1    6    8     5     1    1.0832E+01  2.3262E-01   1.0599E+01  0.000E+00  0.000E+00  0.000E+00  1.05869E+03  6.881E-01  1.577E+01  6.307E-02  1.229E+00
   1    7    7     5     2    1.0599E+01  2.8607E-01   1.0313E+01  0.000E+00  0.000E+00  0.000E+00  1.05418E+03  6.822E-01  1.554E+01  7.769E-02  1.227E+00
   1    8    7     5     3    1.0313E+01  1.9716E-01   1.0116E+01  0.000E+00  0.000E+00  0.000E+00  1.04993E+03  6.766E-01  1.532E+01  5.363E-02  1.226E+00
   1    8    6     5     4    1.0116E+01  1.3929E-01   9.9766E+00  0.000E+00  0.000E+00  0.000E+00  1.04692E+03  6.727E-01  1.517E+01  3.792E-02  1.224E+00
   1    9    6     6     1    4.9967E+01  0.0000E+00   4.9967E+01  0.000E+00  0.000E+00  0.000E+00  1.04458E+03  1.850E+00  1.200E+01  0.000E+00  1.617E+00
   1   10    7     6     2    4.9967E+01  0.0000E+00   4.9967E+01  0.000E+00  0.000E+00  0.000E+00  1.04003E+03  1.850E+00  1.200E+01  0.000E+00  1.617E+00
   1   11    7     6     3    4.9967E+01  0.0000E+00   4.9967E+01  0.000E+00  0.000E+00  0.000E+00  1.03549E+03  1.850E+00  1.200E+01  0.000E+00  1.617E+00
   1   12    7     6     4    4.9967E+01  0.0000E+00   4.9967E+01  0.000E+00  0.000E+00  0.000E+00  1.03094E+03  1.850E+00  1.200E+01  0.000E+00  1.617E+00
   1   13    7     6     5    4.9967E+01  0.0000E+00   4.9967E+01  0.000E+00  0.000E+00  0.000E+00  1.02776E+03  1.850E+00  1.200E+01  0.000E+00  4.840E-01
   1   14    9     7     1    1.5000E+02  1.3617E+00   1.4864E+02  0.000E+00  0.000E+00  0.000E+00  1.03987E+03  2.288E+00  5.529E+01  5.593E-01  8.115E-01
   1   13    8     7     2    1.4864E+02  2.0559E+00   1.4658E+02  0.000E+00  0.000E+00  0.000E+00  1.03478E+03  2.279E+00  5.525E+01  6.147E-01  1.115E+00
   1   13    7     7     3    1.4658E+02  1.8872E+00   1.4470E+02  0.000E+00  0.000E+00  0.000E+00  1.02969E+03  2.268E+00  5.521E+01  5.583E-01  1.127E+00
   1   13    6     8     1    1.9466E+02  1.4019E+00   1.9326E+02  0.000E+00  0.000E+00  0.000E+00  1.02498E+03  3.102E+00  4.498E+01  4.583E-01  1.020E+00
   1   13    5     8     2    1.9326E+02  5.5569E-01   1.9270E+02  0.000E+00  0.000E+00  0.000E+00  1.01872E+03  3.096E+00  4.489E+01  4.575E-01  4.049E-01
   1   13    4     8     3    1.9270E+02 -1.3251E+00   1.9403E+02  0.000E+00  0.000E+00  0.000E+00  1.01247E+03  3.098E+00  4.493E+01  4.578E+00 -9.648E-02
   1   13    3     8     4    1.9403E+02 -3.1472E+00   1.9718E+02  0.000E+00  0.000E+00  0.000E+00  1.00624E+03  3.112E+00  4.512E+01  4.598E+00 -2.282E-01
   1   13    2     8     5    1.9718E+02 -2.5274E+00   1.9970E+02  0.000E+00  0.000E+00  0.000E+00  1.00000E+03  3.129E+00  4.536E+01  4.623E+00 -1.822E-01
   1   13    1     8     6    1.9970E+02 -1.9294E+00   2.0163E+02  0.000E+00  0.000E+00  0.000E+00  9.95017E+02  3.142E+00  4.555E+01  2.785E+00 -2.309E-01
   1    6    8     9     1    0.0000E+00  0.0000E+00   0.0000E+00  0.000E+00  0.000E+00  0.000E+00  1.07850E+03  0.000E+00  4.000E+00  0.000E+00  1.000E+00





UNSATURATED ZONE PACKAGE VOLUMETRIC BUDGET FOR  TIME STEP    30 STRESS PERIOD    3
  ------------------------------------------------------------------------------



     CUMULATIVE VOLUMES      L**3       RATES FOR THIS TIME STEP      L**3/T
     ------------------                 ------------------------

           IN:                                      IN:
           ---                                      ---
        INFILTRATION =     6681690.0000          INFILTRATION =           0.8475

          OUT:                                     OUT:
          ----                                     ----
              UZF ET =     1524435.0487                UZF ET =           0.2901
        UZF RECHARGE =   154169167.8125          UZF RECHARGE =          27.9504

            IN - OUT =  -149011912.8612              IN - OUT =         -27.3929

          STORAGE:                                 STORAGE:
          --------                                 --------
      STORAGE CHANGE =  -149010968.7984        STORAGE CHANGE =         -27.3929

 PERCENT DISCREPANCY IS DIFFERENCE BETWEEN IN-OUT MINUS CHANGE IN STORAGE
 DIVIDED BY THE AVERAGE OF IN AND OUT TIMES 100

 PERCENT DISCREPANCY =          -0.00     PERCENT DISCREPANCY =          -0.00






1
  VOLUMETRIC BUDGET FOR ENTIRE MODEL AT END OF TIME STEP   30, STRESS PERIOD   3
  ------------------------------------------------------------------------------

     CUMULATIVE VOLUMES      L**3       RATES FOR THIS TIME STEP      L**3/T
     ------------------                 ------------------------

           IN:                                      IN:
           ---                                      ---
             STORAGE =           0.0000               STORAGE =           0.0000
       CONSTANT HEAD =           0.0000         CONSTANT HEAD =           0.0000
               WELLS =           0.0000                 WELLS =           0.0000
     HEAD DEP BOUNDS =     2298537.0000       HEAD DEP BOUNDS =           0.2875
      STREAM LEAKAGE =    78784816.0000        STREAM LEAKAGE =          10.8934
        UZF RECHARGE =   154169136.0000          UZF RECHARGE =          27.9504
               GW ET =           0.0000                 GW ET =           0.0000
     SURFACE LEAKAGE =           0.0000       SURFACE LEAKAGE =           0.0000

            TOTAL IN =   235252480.0000              TOTAL IN =          39.1313

          OUT:                                     OUT:
          ----                                     ----
             STORAGE =   164707744.0000               STORAGE =          29.9068
       CONSTANT HEAD =           0.0000         CONSTANT HEAD =           0.0000
               WELLS =           0.0000                 WELLS =           0.0000
     HEAD DEP BOUNDS =     2262797.2500       HEAD DEP BOUNDS =           0.2930
      STREAM LEAKAGE =    64927016.0000        STREAM LEAKAGE =           8.9291
        UZF RECHARGE =           0.0000          UZF RECHARGE =           0.0000
               GW ET =     3341160.0000                 GW ET =       2.5711E-10
     SURFACE LEAKAGE =           0.0000       SURFACE LEAKAGE =           0.0000

           TOTAL OUT =   235238720.0000             TOTAL OUT =          39.1288

            IN - OUT =       13760.0000              IN - OUT =       2.4147E-03

 PERCENT DISCREPANCY =           0.01     PERCENT DISCREPANCY =           0.01






         TIME SUMMARY AT END OF TIME STEP   30 IN STRESS PERIOD    3
                    SECONDS     MINUTES      HOURS       DAYS        YEARS
                    -----------------------------------------------------------
   TIME STEP LENGTH  87600.      1460.0      24.333      1.0139     2.77588E-03
 STRESS PERIOD TIME 2.62800E+06  43800.      730.00      30.417     8.32763E-02
         TOTAL TIME 7.88400E+06 1.31400E+05  2190.0      91.250     0.24983    
1
1
                            STRESS PERIOD NO.    4, LENGTH =   2628000.    
                            -----------------------------------------------

                              NUMBER OF TIME STEPS =    30

                               MULTIPLIER FOR DELT =     1.000

                            INITIAL TIME STEP SIZE =   87600.00    

 WELL NO.  LAYER   ROW   COL   STRESS RATE         
 --------------------------------------------------
      1      1      6      4       0.000    
      2      1      6      7       0.000    
      3      1      7      4       0.000    
      4      1      7      5       0.000    
      5      1      8      4       0.000    
      6      1      8      5       0.000    
      7      1      9      4       0.000    
      8      1      9      5       0.000    
      9      1     10      4       0.000    
     10      1     10      5       0.000    

     10 WELLS

 REUSING NON-PARAMETER GHB CELLS FROM LAST STRESS PERIOD

      2 GHB CELLS

 REUSING STREAM SEGMENT DATA FROM LAST STRESS PERIOD



            AREAL INFILTRATION RATE
 READING ON UNIT   19 WITH FORMAT: (10F4.0)            

            1           2           3           4           5           6           7           8           9          10
 ........................................................................................................................
   1   1.0000E-10  2.0000E-10   0.000       0.000       0.000       0.000       0.000       0.000       0.000       0.000    
   2   2.0000E-10  1.0000E-10  2.0000E-10   0.000       0.000      8.0000E-10  8.0000E-10  5.0000E-10   0.000       0.000    
   3    0.000      5.0000E-10  1.0000E-10  1.0000E-10  8.0000E-10  8.0000E-10  5.0000E-10  5.0000E-10   0.000       0.000    
   4   8.0000E-10  5.0000E-10  1.0000E-10  1.0000E-10  1.0000E-10  1.0000E-10  1.0000E-10  1.0000E-10  2.0000E-10   0.000    
   5   8.0000E-10  5.0000E-10  1.0000E-10  1.0000E-10  1.0000E-10  1.0000E-10  1.0000E-10  1.0000E-10  1.0000E-10  1.0000E-10
   6   8.0000E-10  5.0000E-10  5.0000E-10  2.0000E-10  2.0000E-10  1.0000E-10  1.0000E-10  1.0000E-10  1.0000E-10  5.0000E-10
   7   8.0000E-10  5.0000E-10  5.0000E-10  2.0000E-10  2.0000E-10  1.0000E-10  1.0000E-10  2.0000E-10  2.0000E-10   0.000    
   8    0.000      5.0000E-10  5.0000E-10  2.0000E-10  2.0000E-10  1.0000E-10  1.0000E-10  2.0000E-10  5.0000E-10   0.000    
   9    0.000      5.0000E-10  5.0000E-10  2.0000E-10  2.0000E-10  1.0000E-10  1.0000E-10  2.0000E-10  5.0000E-10   0.000    
  10    0.000      5.0000E-10  5.0000E-10  2.0000E-10  2.0000E-10  1.0000E-10  1.0000E-10  2.0000E-10  5.0000E-10  8.0000E-10
  11    0.000      1.0000E-10  1.0000E-10  1.0000E-10  1.0000E-10  1.0000E-10  1.0000E-10  2.0000E-10  5.0000E-10   0.000    
  12   1.0000E-10  1.0000E-10  1.0000E-10  1.0000E-10  1.0000E-10  1.0000E-10  1.0000E-10  1.0000E-10  2.0000E-10   0.000    
  13   1.0000E-10  1.0000E-10  2.0000E-10  2.0000E-10  2.0000E-10  2.0000E-10  2.0000E-10  1.0000E-10  1.0000E-10   0.000    
  14    0.000      2.0000E-10  5.0000E-10  5.0000E-10  5.0000E-10  5.0000E-10  5.0000E-10  2.0000E-10  1.0000E-10   0.000    
  15    0.000       0.000      8.0000E-10  8.0000E-10  8.0000E-10  8.0000E-10   0.000       0.000       0.000       0.000    

                  ET RATE =  1.000000E-10

 USING ET EXTINCTION DEPTH FROM PREVIOUS STRESS PERIOD. CURRENT PERIOD IS:       4

 USING EXTINCTION WATER CONTENT FROM PREVIOUS STRESS PERIOD. CURRENT PERIOD IS:       4
 
 SOLVING FOR HEAD 
                                                   Max.-Head-Change                         Max.-Flux-Residual
  Residual-Control   Outer-Iter.   Inner-Iter.     Column Row Layer    Maximum-Head-Change  Column Row Layer    Maximum-Flux-Residual          L2-NORM 
          0                 1           2             4   13     1       0.1574191192E-01       4   13    1         0.9052930120E+00      0.2558532553E+01
          0                 2           2             7    3     1       0.3897419957E-02       2    2    1         0.1132566084E+00      0.5666626388E+00
          0                 3           2             7    3     1       0.1742686438E-02       7    3    1         0.4544939399E-01      0.2079472605E+00
          0                 4           2             7    3     1       0.7792152044E-03       7    3    1         0.2032215996E-01      0.8991735936E-01
          0                 5           2             7    3     1       0.3484099074E-03       7    3    1         0.9086722169E-02      0.4002448427E-01
          0                 6           2             7    3     1       0.1557823161E-03       7    3    1         0.4062930326E-02      0.1789454619E-01
          0                 7           1             7    3     1       0.6965309343E-04       7    3    1         0.1816628161E-02      0.8006090682E-02
          0                 8           1             7    3     1       0.3114278040E-04       7    3    1         0.8122454890E-03      0.3582509018E-02
          0                 9           1             7    3     1       0.1392416850E-04       7    3    1         0.3631644513E-03      0.1603191651E-02
          0                10           1             7    3     1       0.6225529236E-05       7    3    1         0.1623731812E-03      0.7174781254E-03

    ------------------------------------------------
       NWT REQUIRED           10 OUTER ITERATIONS 
       AND A TOTAL OF         16 INNER ITERATIONS.
    ------------------------------------------------

 NO OUTPUT CONTROL FOR STRESS PERIOD    4   TIME STEP    1
 
 SOLVING FOR HEAD 
                                                   Max.-Head-Change                         Max.-Flux-Residual
  Residual-Control   Outer-Iter.   Inner-Iter.     Column Row Layer    Maximum-Head-Change  Column Row Layer    Maximum-Flux-Residual          L2-NORM 
          0                 1           2             4   13     1       0.1399858640E-01       4   13    1         0.8040398103E+00      0.2477016293E+01
          0                 2           2             7    3     1       0.3876713580E-02       2    2    1         0.1124876207E+00      0.5624841750E+00
          0                 3           2             7    3     1       0.1733471764E-02       7    3    1         0.4520813987E-01      0.2075000270E+00
          0                 4           2             7    3     1       0.7751144194E-03       7    3    1         0.2021479748E-01      0.8977767165E-01
          0                 5           2             7    3     1       0.3465848959E-03       7    3    1         0.9038942663E-02      0.3996491933E-01
          0                 6           2             7    3     1       0.1549700919E-03       7    3    1         0.4041666447E-02      0.1786816626E-01
          0                 7           1             7    3     1       0.6929160194E-04       7    3    1         0.1807164587E-02      0.7994358220E-02
          0                 8           1             7    3     1       0.3098188947E-04       7    3    1         0.8080335733E-03      0.3577288614E-02
          0                 9           1             7    3     1       0.1385255783E-04       7    3    1         0.3612898171E-03      0.1600869541E-02
          0                10           1             7    3     1       0.6193655460E-05       7    3    1         0.1615387998E-03      0.7164451637E-03

    ------------------------------------------------
       NWT REQUIRED           10 OUTER ITERATIONS 
       AND A TOTAL OF         16 INNER ITERATIONS.
    ------------------------------------------------

 NO OUTPUT CONTROL FOR STRESS PERIOD    4   TIME STEP    2
 
 SOLVING FOR HEAD 
                                                   Max.-Head-Change                         Max.-Flux-Residual
  Residual-Control   Outer-Iter.   Inner-Iter.     Column Row Layer    Maximum-Head-Change  Column Row Layer    Maximum-Flux-Residual          L2-NORM 
          0                 1           2             4   13     1       0.1246663870E-01       4   13    1         0.7152680432E+00      0.2407564646E+01
          0                 2           2             7    3     1       0.3856304997E-02       2    2    1         0.1117367311E+00      0.5589075964E+00
          0                 3           2             7    3     1       0.1724389413E-02       7    3    1         0.4497035445E-01      0.2070779038E+00
          0                 4           2             7    3     1       0.7710724320E-03       7    3    1         0.2010897627E-01      0.8963591567E-01
          0                 5           2             7    3     1       0.3447860112E-03       7    3    1         0.8991848022E-02      0.3990370898E-01
          0                 6           2             7    3     1       0.1541694777E-03       7    3    1         0.4020706896E-02      0.1784100511E-01
          0                 7           1             7    3     1       0.6893526961E-04       7    3    1         0.1797836247E-02      0.7982275282E-02
          0                 8           1             7    3     1       0.3082329093E-04       7    3    1         0.8038817538E-03      0.3571912706E-02
          0                 9           1             7    3     1       0.1378196611E-04       7    3    1         0.3594418975E-03      0.1598476717E-02
          0                10           1             7    3     1       0.6162234510E-05       7    3    1         0.1607162940E-03      0.7153808366E-03

    ------------------------------------------------
       NWT REQUIRED           10 OUTER ITERATIONS 
       AND A TOTAL OF         16 INNER ITERATIONS.
    ------------------------------------------------

 NO OUTPUT CONTROL FOR STRESS PERIOD    4   TIME STEP    3
 
 SOLVING FOR HEAD 
                                                   Max.-Head-Change                         Max.-Flux-Residual
  Residual-Control   Outer-Iter.   Inner-Iter.     Column Row Layer    Maximum-Head-Change  Column Row Layer    Maximum-Flux-Residual          L2-NORM 
          0                 1           2             2    2     1       0.1226630271E-01       2    2    1         0.6402935455E+00      0.2350982880E+01
          0                 2           2             7    3     1       0.3836187579E-02       2    2    1         0.1110030684E+00      0.5559788404E+00
          0                 3           2             7    3     1       0.1715436301E-02       7    3    1         0.4473595987E-01      0.2066777924E+00
          0                 4           2             7    3     1       0.7670878114E-03       7    3    1         0.2000466018E-01      0.8949270345E-01
          0                 5           2             7    3     1       0.3430125909E-03       7    3    1         0.8945421462E-02      0.3984134975E-01
          0                 6           2             7    3     1       0.1533801664E-03       7    3    1         0.4000043892E-02      0.1781331366E-01
          0                 7           1             7    3     1       0.6858395439E-04       7    3    1         0.1788639544E-02      0.7969955583E-02
          0                 8           1             7    3     1       0.3066692038E-04       7    3    1         0.7997883738E-03      0.3566429687E-02
          0                 9           1             7    3     1       0.1371236334E-04       7    3    1         0.3576199096E-03      0.1596036632E-02
          0                10           1             7    3     1       0.6131252004E-05       7    3    1         0.1599052931E-03      0.7142948187E-03

    ------------------------------------------------
       NWT REQUIRED           10 OUTER ITERATIONS 
       AND A TOTAL OF         16 INNER ITERATIONS.
    ------------------------------------------------

 NO OUTPUT CONTROL FOR STRESS PERIOD    4   TIME STEP    4
 
 SOLVING FOR HEAD 
                                                   Max.-Head-Change                         Max.-Flux-Residual
  Residual-Control   Outer-Iter.   Inner-Iter.     Column Row Layer    Maximum-Head-Change  Column Row Layer    Maximum-Flux-Residual          L2-NORM 
          0                 1           2             2    2     1       0.1218652532E-01       2    2    1         0.6360790844E+00      0.2301531762E+01
          0                 2           2             7    3     1       0.3816280783E-02       2    2    1         0.1102861497E+00      0.5529164464E+00
          0                 3           2             7    3     1       0.1706576707E-02       7    3    1         0.4450401823E-01      0.2062401017E+00
          0                 4           2             7    3     1       0.7631447129E-03       7    3    1         0.1990143320E-01      0.8934337416E-01
          0                 5           2             7    3     1       0.3412576073E-03       7    3    1         0.8899478491E-02      0.3977710202E-01
          0                 6           2             7    3     1       0.1525990418E-03       7    3    1         0.3979595620E-02      0.1778481533E-01
          0                 7           1             7    3     1       0.6823627515E-04       7    3    1         0.1779538195E-02      0.7957275563E-02
          0                 8           1             7    3     1       0.3051216342E-04       7    3    1         0.7957373309E-03      0.3560787570E-02
          0                 9           1             7    3     1       0.1364347725E-04       7    3    1         0.3558167314E-03      0.1593525735E-02
          0                10           1             7    3     1       0.6100588390E-05       7    3    1         0.1591026511E-03      0.7131769733E-03

    ------------------------------------------------
       NWT REQUIRED           10 OUTER ITERATIONS 
       AND A TOTAL OF         16 INNER ITERATIONS.
    ------------------------------------------------

 OUTPUT CONTROL FOR STRESS PERIOD    4   TIME STEP    5
    PRINT BUDGET
    SAVE BUDGET
 UBUDSV SAVING "         STORAGE" ON UNIT102 AT TIME STEP     5, STRESS PERIOD    4
 UBUDSV SAVING "   CONSTANT HEAD" ON UNIT102 AT TIME STEP     5, STRESS PERIOD    4
 UBUDSV SAVING "FLOW RIGHT FACE " ON UNIT102 AT TIME STEP     5, STRESS PERIOD    4
 UBUDSV SAVING "FLOW FRONT FACE " ON UNIT102 AT TIME STEP     5, STRESS PERIOD    4

  HEAD DEP BOUNDS   PERIOD    4   STEP     5
 BOUNDARY      1   LAYER   1   ROW    13   COL     1   RATE   -0.294555    
 BOUNDARY      2   LAYER   1   ROW    14   COL     9   RATE    0.287094    



 STREAM LISTING     PERIOD      4   STEP        5

 LAYER ROW COL. STREAM  RCH.  FLOW INTO     FLOW TO   FLOW OUT OF   OVRLND.     DIRECT     STREAM       STREAM     STREAM     STREAM   STREAMBED  STREAMBED
                SEG.NO.  NO.  STRM. RCH.    AQUIFER    STRM. RCH.    RUNOFF     PRECIP       ET          HEAD       DEPTH      WIDTH   CONDCTNC.   GRADIENT

   1    1    1     1     1    7.7000E+01  4.2703E-01   7.6573E+01  0.000E+00  0.000E+00  0.000E+00  1.09476E+03  1.708E+00  2.016E+01  9.070E-02  1.569E+00
   1    2    2     1     2    7.6573E+01  6.6237E-01   7.5911E+01  0.000E+00  0.000E+00  0.000E+00  1.08976E+03  1.706E+00  2.011E+01  1.408E-01  1.569E+00
   1    3    3     1     3    7.5911E+01  5.6590E-01   7.5345E+01  0.000E+00  0.000E+00  0.000E+00  1.08412E+03  1.703E+00  2.006E+01  1.203E-01  1.568E+00
   1    3    4     1     4    7.5345E+01  5.2193E-01   7.4823E+01  0.000E+00  0.000E+00  0.000E+00  1.07911E+03  1.700E+00  2.001E+01  1.110E-01  1.567E+00
   1    4    5     2     1    7.2823E+01  0.0000E+00   7.2823E+01  0.000E+00  0.000E+00  0.000E+00  1.07423E+03  2.294E+00  1.200E+01  0.000E+00  1.765E+00
   1    5    6     2     2    7.2823E+01  0.0000E+00   7.2823E+01  0.000E+00  0.000E+00  0.000E+00  1.06880E+03  2.294E+00  1.200E+01  0.000E+00  1.765E+00
   1    6    6     2     3    7.2823E+01  0.0000E+00   7.2823E+01  0.000E+00  0.000E+00  0.000E+00  1.06409E+03  2.294E+00  1.200E+01  0.000E+00  1.765E+00
   1    7    6     2     4    7.2823E+01  0.0000E+00   7.2823E+01  0.000E+00  0.000E+00  0.000E+00  1.05937E+03  2.294E+00  1.200E+01  0.000E+00  1.765E+00
   1    8    6     2     5    7.2823E+01  0.0000E+00   7.2823E+01  0.000E+00  0.000E+00  0.000E+00  1.05465E+03  2.294E+00  1.200E+01  0.000E+00  1.765E+00
   1    3    5     3     1    2.0000E+00  2.8252E-01   1.7175E+00  0.000E+00  0.000E+00  0.000E+00  1.07555E+03  1.909E+00  9.636E+00  7.227E-02  1.955E+00
   1    3    6     3     2    1.7175E+00  2.4905E-01   1.4684E+00  0.000E+00  0.000E+00  0.000E+00  1.07264E+03  1.727E+00  8.909E+00  6.682E-02  1.864E+00
   1    3    7     3     3    1.4684E+00  1.9718E-01   1.2712E+00  0.000E+00  0.000E+00  0.000E+00  1.06987E+03  1.555E+00  8.218E+00  5.547E-02  1.777E+00
   1    4    8     3     4    1.2712E+00  2.2567E-01   1.0456E+00  0.000E+00  0.000E+00  0.000E+00  1.06682E+03  1.364E+00  7.455E+00  6.709E-02  1.682E+00
   1    5    8     3     5    1.0456E+00  1.5790E-01   8.8768E-01  0.000E+00  0.000E+00  0.000E+00  1.06362E+03  1.164E+00  6.655E+00  4.991E-02  1.582E+00
   1    6    8     3     6    8.8768E-01  5.5980E-02   8.3170E-01  0.000E+00  0.000E+00  0.000E+00  1.06158E+03  1.036E+00  6.145E+00  1.844E-02  1.518E+00
   1    5   10     4     1    1.0000E+01  0.0000E+00   1.0000E+01  0.000E+00  0.000E+00  0.000E+00  1.07837E+03  6.385E-01  1.000E+01  0.000E+00  1.213E+00
   1    5    9     4     2    1.0000E+01  0.0000E+00   1.0000E+01  0.000E+00  0.000E+00  0.000E+00  1.07155E+03  6.385E-01  1.000E+01  0.000E+00  1.213E+00
   1    6    8     4     3    1.0000E+01  0.0000E+00   1.0000E+01  0.000E+00  0.000E+00  0.000E+00  1.06382E+03  6.385E-01  1.000E+01  0.000E+00  1.213E+00
   1    6    8     5     1    1.0832E+01  2.3262E-01   1.0599E+01  0.000E+00  0.000E+00  0.000E+00  1.05869E+03  6.881E-01  1.577E+01  6.307E-02  1.229E+00
   1    7    7     5     2    1.0599E+01  2.8607E-01   1.0313E+01  0.000E+00  0.000E+00  0.000E+00  1.05418E+03  6.822E-01  1.554E+01  7.769E-02  1.227E+00
   1    8    7     5     3    1.0313E+01  1.9716E-01   1.0116E+01  0.000E+00  0.000E+00  0.000E+00  1.04993E+03  6.766E-01  1.532E+01  5.363E-02  1.226E+00
   1    8    6     5     4    1.0116E+01  1.3929E-01   9.9766E+00  0.000E+00  0.000E+00  0.000E+00  1.04692E+03  6.727E-01  1.517E+01  3.792E-02  1.224E+00
   1    9    6     6     1    8.2799E+01  0.0000E+00   8.2799E+01  0.000E+00  0.000E+00  0.000E+00  1.04523E+03  2.505E+00  1.200E+01  0.000E+00  1.835E+00
   1   10    7     6     2    8.2799E+01  0.0000E+00   8.2799E+01  0.000E+00  0.000E+00  0.000E+00  1.04069E+03  2.505E+00  1.200E+01  0.000E+00  1.835E+00
   1   11    7     6     3    8.2799E+01  0.0000E+00   8.2799E+01  0.000E+00  0.000E+00  0.000E+00  1.03614E+03  2.505E+00  1.200E+01  0.000E+00  1.835E+00
   1   12    7     6     4    8.2799E+01  0.0000E+00   8.2799E+01  0.000E+00  0.000E+00  0.000E+00  1.03160E+03  2.505E+00  1.200E+01  0.000E+00  1.835E+00
   1   13    7     6     5    8.2799E+01  0.0000E+00   8.2799E+01  0.000E+00  0.000E+00  0.000E+00  1.02841E+03  2.505E+00  1.200E+01  0.000E+00  6.967E-01
   1   14    9     7     1    1.5000E+02  1.3554E+00   1.4864E+02  0.000E+00  0.000E+00  0.000E+00  1.03987E+03  2.288E+00  5.529E+01  5.593E-01  8.078E-01
   1   13    8     7     2    1.4864E+02  2.0476E+00   1.4660E+02  0.000E+00  0.000E+00  0.000E+00  1.03478E+03  2.279E+00  5.525E+01  6.147E-01  1.110E+00
   1   13    7     7     3    1.4660E+02  1.8780E+00   1.4472E+02  0.000E+00  0.000E+00  0.000E+00  1.02969E+03  2.268E+00  5.521E+01  5.583E-01  1.121E+00
   1   13    6     8     1    2.2752E+02  1.5584E+00   2.2596E+02  0.000E+00  0.000E+00  0.000E+00  1.02516E+03  3.289E+00  4.769E+01  4.860E-01  1.069E+00
   1   13    5     8     2    2.2596E+02  6.6478E-01   2.2530E+02  0.000E+00  0.000E+00  0.000E+00  1.01891E+03  3.283E+00  4.760E+01  4.851E-01  4.568E-01
   1   13    4     8     3    2.2530E+02 -8.3810E-01   2.2613E+02  0.000E+00  0.000E+00  0.000E+00  1.01266E+03  3.283E+00  4.761E+01  4.851E+00 -5.758E-02
   1   13    3     8     4    2.2613E+02 -2.7383E+00   2.2887E+02  0.000E+00  0.000E+00  0.000E+00  1.00642E+03  3.293E+00  4.775E+01  4.866E+00 -1.876E-01
   1   13    2     8     5    2.2887E+02 -2.1130E+00   2.3098E+02  0.000E+00  0.000E+00  0.000E+00  1.00018E+03  3.306E+00  4.794E+01  4.885E+00 -1.442E-01
   1   13    1     8     6    2.3098E+02 -1.6469E+00   2.3263E+02  0.000E+00  0.000E+00  0.000E+00  9.95191E+02  3.316E+00  4.809E+01  2.940E+00 -1.867E-01
   1    6    8     9     1    0.0000E+00  0.0000E+00   0.0000E+00  0.000E+00  0.000E+00  0.000E+00  1.07850E+03  0.000E+00  4.000E+00  0.000E+00  1.000E+00



 UBDSV3 SAVING "     NETRECHARGE" ON UNIT 100 AT TIME STEP     5, STRESS PERIOD   4
 UBDSV3 SAVING "    NETDISCHARGE" ON UNIT 101 AT TIME STEP     5, STRESS PERIOD   4
 UBDSV3 SAVING "           GW ET" ON UNIT  61 AT TIME STEP     5, STRESS PERIOD   4
 UBDSV3 SAVING "    UZF RECHARGE" ON UNIT  61 AT TIME STEP     5, STRESS PERIOD   4
 UBDSV3 SAVING " SURFACE LEAKAGE" ON UNIT  61 AT TIME STEP     5, STRESS PERIOD   4
 UBDSV3 SAVING "       HORT+DUNN" ON UNIT  61 AT TIME STEP     5, STRESS PERIOD   4
 UBDSV3 SAVING "  STORAGE CHANGE" ON UNIT  61 AT TIME STEP     5, STRESS PERIOD   4


UNSATURATED ZONE PACKAGE VOLUMETRIC BUDGET FOR  TIME STEP     5 STRESS PERIOD    4
  ------------------------------------------------------------------------------



     CUMULATIVE VOLUMES      L**3       RATES FOR THIS TIME STEP      L**3/T
     ------------------                 ------------------------

           IN:                                      IN:
           ---                                      ---
        INFILTRATION =     7052895.0000          INFILTRATION =           0.8475

          OUT:                                     OUT:
          ----                                     ----
              UZF ET =     1651473.9060                UZF ET =           0.2901
        UZF RECHARGE =   166707109.2852          UZF RECHARGE =          28.4975

            IN - OUT =  -161305688.1911              IN - OUT =         -27.9401

          STORAGE:                                 STORAGE:
          --------                                 --------
      STORAGE CHANGE =  -161304629.5057        STORAGE CHANGE =         -27.9399

 PERCENT DISCREPANCY IS DIFFERENCE BETWEEN IN-OUT MINUS CHANGE IN STORAGE
 DIVIDED BY THE AVERAGE OF IN AND OUT TIMES 100

 PERCENT DISCREPANCY =          -0.00     PERCENT DISCREPANCY =          -0.00






1
  VOLUMETRIC BUDGET FOR ENTIRE MODEL AT END OF TIME STEP    5, STRESS PERIOD   4
  ------------------------------------------------------------------------------

     CUMULATIVE VOLUMES      L**3       RATES FOR THIS TIME STEP      L**3/T
     ------------------                 ------------------------

           IN:                                      IN:
           ---                                      ---
             STORAGE =           0.0000               STORAGE =           0.0000
       CONSTANT HEAD =           0.0000         CONSTANT HEAD =           0.0000
               WELLS =           0.0000                 WELLS =           0.0000
     HEAD DEP BOUNDS =     2424358.5000       HEAD DEP BOUNDS =           0.2871
      STREAM LEAKAGE =    83921512.0000        STREAM LEAKAGE =          11.7049
        UZF RECHARGE =   166707072.0000          UZF RECHARGE =          28.4975
               GW ET =           0.0000                 GW ET =           0.0000
     SURFACE LEAKAGE =           0.0000       SURFACE LEAKAGE =           0.0000

            TOTAL IN =   253052944.0000              TOTAL IN =          40.4895

          OUT:                                     OUT:
          ----                                     ----
             STORAGE =   179323536.0000               STORAGE =          32.8562
       CONSTANT HEAD =           0.0000         CONSTANT HEAD =           0.0000
               WELLS =           0.0000                 WELLS =           0.0000
     HEAD DEP BOUNDS =     2391546.5000       HEAD DEP BOUNDS =           0.2946
      STREAM LEAKAGE =    67981872.0000        STREAM LEAKAGE =           7.3364
        UZF RECHARGE =           0.0000          UZF RECHARGE =           0.0000
               GW ET =     3341160.0000                 GW ET =       2.5932E-10
     SURFACE LEAKAGE =           0.0000       SURFACE LEAKAGE =           0.0000

           TOTAL OUT =   253038112.0000             TOTAL OUT =          40.4871

            IN - OUT =       14832.0000              IN - OUT =       2.3956E-03

 PERCENT DISCREPANCY =           0.01     PERCENT DISCREPANCY =           0.01






         TIME SUMMARY AT END OF TIME STEP    5 IN STRESS PERIOD    4
                    SECONDS     MINUTES      HOURS       DAYS        YEARS
                    -----------------------------------------------------------
   TIME STEP LENGTH  87600.      1460.0      24.333      1.0139     2.77588E-03
 STRESS PERIOD TIME 4.38000E+05  7300.0      121.67      5.0694     1.38794E-02
         TOTAL TIME 8.32200E+06 1.38700E+05  2311.7      96.319     0.26371    
1
 
 SOLVING FOR HEAD 
                                                   Max.-Head-Change                         Max.-Flux-Residual
  Residual-Control   Outer-Iter.   Inner-Iter.     Column Row Layer    Maximum-Head-Change  Column Row Layer    Maximum-Flux-Residual          L2-NORM 
          0                 1           2             2    2     1       0.1210860260E-01       2    2    1         0.6319628762E+00      0.2262214900E+01
          0                 2           2             7    3     1       0.3796655389E-02       2    2    1         0.1095858704E+00      0.5507704004E+00
          0                 3           2             7    3     1       0.1697842313E-02       7    3    1         0.4427535516E-01      0.2058637567E+00
          0                 4           2             7    3     1       0.7592573194E-03       7    3    1         0.1979966493E-01      0.8919605355E-01
          0                 5           2             7    3     1       0.3395274077E-03       7    3    1         0.8854184523E-02      0.3971222772E-01
          0                 6           2             7    3     1       0.1518289443E-03       7    3    1         0.3959436098E-02      0.1775596715E-01
          0                 7           1             7    3     1       0.6789350147E-04       7    3    1         0.1770565309E-02      0.7944435018E-02
          0                 8           1             7    3     1       0.3035958956E-04       7    3    1         0.7917434430E-03      0.3555071865E-02
          0                 9           1             7    3     1       0.1357556223E-04       7    3    1         0.3540389762E-03      0.1590981302E-02
          0                10           1             7    3     1       0.6070356718E-05       7    3    1         0.1583113188E-03      0.7120453793E-03

    ------------------------------------------------
       NWT REQUIRED           10 OUTER ITERATIONS 
       AND A TOTAL OF         16 INNER ITERATIONS.
    ------------------------------------------------

 NO OUTPUT CONTROL FOR STRESS PERIOD    4   TIME STEP    6
 
 SOLVING FOR HEAD 
                                                   Max.-Head-Change                         Max.-Flux-Residual
  Residual-Control   Outer-Iter.   Inner-Iter.     Column Row Layer    Maximum-Head-Change  Column Row Layer    Maximum-Flux-Residual          L2-NORM 
          0                 1           2             2    2     1       0.1203244329E-01       2    2    1         0.6279400857E+00      0.2229846248E+01
          0                 2           2             7    3     1       0.3777230851E-02       2    2    1         0.1089014117E+00      0.5489095422E+00
          0                 3           2             7    3     1       0.1689197087E-02       7    3    1         0.4404903126E-01      0.2054938631E+00
          0                 4           2             7    3     1       0.7554095109E-03       7    3    1         0.1969893509E-01      0.8904715481E-01
          0                 5           2             7    3     1       0.3378147829E-03       7    3    1         0.8809351573E-02      0.3964650840E-01
          0                 6           2             7    3     1       0.1510666496E-03       7    3    1         0.3939481254E-02      0.1772673282E-01
          0                 7           1             7    3     1       0.6755419270E-04       7    3    1         0.1761683302E-02      0.7931421554E-02
          0                 8           1             7    3     1       0.3020855363E-04       7    3    1         0.7877899047E-03      0.3549278828E-02
          0                 9           1             7    3     1       0.1350833025E-04       7    3    1         0.3522791446E-03      0.1588402634E-02
          0                10           1             7    3     1       0.6040428806E-05       7    3    1         0.1575279477E-03      0.7108966940E-03

    ------------------------------------------------
       NWT REQUIRED           10 OUTER ITERATIONS 
       AND A TOTAL OF         16 INNER ITERATIONS.
    ------------------------------------------------

 NO OUTPUT CONTROL FOR STRESS PERIOD    4   TIME STEP    7
 
 SOLVING FOR HEAD 
                                                   Max.-Head-Change                         Max.-Flux-Residual
  Residual-Control   Outer-Iter.   Inner-Iter.     Column Row Layer    Maximum-Head-Change  Column Row Layer    Maximum-Flux-Residual          L2-NORM 
          0                 1           2             2    2     1       0.1195799829E-01       2    2    1         0.6240081345E+00      0.2201604986E+01
          0                 2           2             7    3     1       0.3758151631E-02       2    2    1         0.1082323310E+00      0.5469805278E+00
          0                 3           2             7    3     1       0.1680705240E-02       7    3    1         0.4382672932E-01      0.2051195568E+00
          0                 4           2             7    3     1       0.7516298304E-03       7    3    1         0.1959999169E-01      0.8889623031E-01
          0                 5           2             7    3     1       0.3361324191E-03       7    3    1         0.8765312116E-02      0.3957983226E-01
          0                 6           2             7    3     1       0.1503177964E-03       7    3    1         0.3919878868E-02      0.1769706168E-01
          0                 7           1             7    3     1       0.6722085458E-04       7    3    1         0.1752957856E-02      0.7918213408E-02
          0                 8           1             7    3     1       0.3006017037E-04       7    3    1         0.7839059132E-03      0.3543398114E-02
          0                 9           1             7    3     1       0.1344227680E-04       7    3    1         0.3505502005E-03      0.1585783969E-02
          0                10           1             7    3     1       0.6011023501E-05       7    3    1         0.1567582920E-03      0.7097328072E-03

    ------------------------------------------------
       NWT REQUIRED           10 OUTER ITERATIONS 
       AND A TOTAL OF         16 INNER ITERATIONS.
    ------------------------------------------------

 NO OUTPUT CONTROL FOR STRESS PERIOD    4   TIME STEP    8
 
 SOLVING FOR HEAD 
                                                   Max.-Head-Change                         Max.-Flux-Residual
  Residual-Control   Outer-Iter.   Inner-Iter.     Column Row Layer    Maximum-Head-Change  Column Row Layer    Maximum-Flux-Residual          L2-NORM 
          0                 1           2             2    2     1       0.1188530059E-01       2    2    1         0.6201686962E+00      0.2179025251E+01
          0                 2           2             7    3     1       0.3739262198E-02       2    2    1         0.1075789315E+00      0.5455110533E+00
          0                 3           2             7    3     1       0.1672297786E-02       7    3    1         0.4360663832E-01      0.2047567940E+00
          0                 4           2             7    3     1       0.7478876766E-03       7    3    1         0.1950203143E-01      0.8874460585E-01
          0                 5           2             7    3     1       0.3344667430E-03       7    3    1         0.8721709834E-02      0.3951266988E-01
          0                 6           2             7    3     1       0.1495763641E-03       7    3    1         0.3900470880E-02      0.1766716615E-01
          0                 7           1             7    3     1       0.6689081580E-04       7    3    1         0.1744318845E-02      0.7904903569E-02
          0                 8           1             7    3     1       0.2991325440E-04       7    3    1         0.7800603590E-03      0.3537472269E-02
          0                 9           1             7    3     1       0.1337687551E-04       7    3    1         0.3488383481E-03      0.1583146045E-02
          0                10           1             7    3     1       0.5981908950E-05       7    3    1         0.1559962393E-03      0.7085568267E-03

    ------------------------------------------------
       NWT REQUIRED           10 OUTER ITERATIONS 
       AND A TOTAL OF         16 INNER ITERATIONS.
    ------------------------------------------------

 NO OUTPUT CONTROL FOR STRESS PERIOD    4   TIME STEP    9
 
 SOLVING FOR HEAD 
                                                   Max.-Head-Change                         Max.-Flux-Residual
  Residual-Control   Outer-Iter.   Inner-Iter.     Column Row Layer    Maximum-Head-Change  Column Row Layer    Maximum-Flux-Residual          L2-NORM 
          0                 1           2             2    2     1       0.1181418245E-01       2    2    1         0.6164129494E+00      0.2159492822E+01
          0                 2           2             7    3     1       0.3720558938E-02       2    2    1         0.1069397020E+00      0.5439991523E+00
          0                 3           2             7    3     1       0.1663973127E-02       7    3    1         0.4338871621E-01      0.2043905887E+00
          0                 4           2             7    3     1       0.7441823448E-03       7    3    1         0.1940503573E-01      0.8859184858E-01
          0                 5           2             7    3     1       0.3328174424E-03       7    3    1         0.8678536526E-02      0.3944493976E-01
          0                 6           2             7    3     1       0.1488422145E-03       7    3    1         0.3881253682E-02      0.1763702071E-01
          0                 7           1             7    3     1       0.6656401671E-04       7    3    1         0.1735764699E-02      0.7891480557E-02
          0                 8           1             7    3     1       0.2976777906E-04       7    3    1         0.7762525488E-03      0.3531495723E-02
          0                 9           1             7    3     1       0.1331211514E-04       7    3    1         0.3471432855E-03      0.1580484806E-02
          0                10           1             7    3     1       0.5953079150E-05       7    3    1         0.1552416547E-03      0.7073719223E-03

    ------------------------------------------------
       NWT REQUIRED           10 OUTER ITERATIONS 
       AND A TOTAL OF         16 INNER ITERATIONS.
    ------------------------------------------------

 OUTPUT CONTROL FOR STRESS PERIOD    4   TIME STEP   10
    PRINT BUDGET
    SAVE BUDGET
 UBUDSV SAVING "         STORAGE" ON UNIT102 AT TIME STEP    10, STRESS PERIOD    4
 UBUDSV SAVING "   CONSTANT HEAD" ON UNIT102 AT TIME STEP    10, STRESS PERIOD    4
 UBUDSV SAVING "FLOW RIGHT FACE " ON UNIT102 AT TIME STEP    10, STRESS PERIOD    4
 UBUDSV SAVING "FLOW FRONT FACE " ON UNIT102 AT TIME STEP    10, STRESS PERIOD    4

  HEAD DEP BOUNDS   PERIOD    4   STEP    10
 BOUNDARY      1   LAYER   1   ROW    13   COL     1   RATE   -0.295774    
 BOUNDARY      2   LAYER   1   ROW    14   COL     9   RATE    0.286680    



 STREAM LISTING     PERIOD      4   STEP       10

 LAYER ROW COL. STREAM  RCH.  FLOW INTO     FLOW TO   FLOW OUT OF   OVRLND.     DIRECT     STREAM       STREAM     STREAM     STREAM   STREAMBED  STREAMBED
                SEG.NO.  NO.  STRM. RCH.    AQUIFER    STRM. RCH.    RUNOFF     PRECIP       ET          HEAD       DEPTH      WIDTH   CONDCTNC.   GRADIENT

   1    1    1     1     1    7.7000E+01  4.2703E-01   7.6573E+01  0.000E+00  0.000E+00  0.000E+00  1.09476E+03  1.708E+00  2.016E+01  9.070E-02  1.569E+00
   1    2    2     1     2    7.6573E+01  6.6237E-01   7.5911E+01  0.000E+00  0.000E+00  0.000E+00  1.08976E+03  1.706E+00  2.011E+01  1.408E-01  1.569E+00
   1    3    3     1     3    7.5911E+01  5.6590E-01   7.5345E+01  0.000E+00  0.000E+00  0.000E+00  1.08412E+03  1.703E+00  2.006E+01  1.203E-01  1.568E+00
   1    3    4     1     4    7.5345E+01  5.2193E-01   7.4823E+01  0.000E+00  0.000E+00  0.000E+00  1.07911E+03  1.700E+00  2.001E+01  1.110E-01  1.567E+00
   1    4    5     2     1    7.2823E+01  0.0000E+00   7.2823E+01  0.000E+00  0.000E+00  0.000E+00  1.07423E+03  2.294E+00  1.200E+01  0.000E+00  1.765E+00
   1    5    6     2     2    7.2823E+01  0.0000E+00   7.2823E+01  0.000E+00  0.000E+00  0.000E+00  1.06880E+03  2.294E+00  1.200E+01  0.000E+00  1.765E+00
   1    6    6     2     3    7.2823E+01  0.0000E+00   7.2823E+01  0.000E+00  0.000E+00  0.000E+00  1.06409E+03  2.294E+00  1.200E+01  0.000E+00  1.765E+00
   1    7    6     2     4    7.2823E+01  0.0000E+00   7.2823E+01  0.000E+00  0.000E+00  0.000E+00  1.05937E+03  2.294E+00  1.200E+01  0.000E+00  1.765E+00
   1    8    6     2     5    7.2823E+01  0.0000E+00   7.2823E+01  0.000E+00  0.000E+00  0.000E+00  1.05465E+03  2.294E+00  1.200E+01  0.000E+00  1.765E+00
   1    3    5     3     1    2.0000E+00  2.8252E-01   1.7175E+00  0.000E+00  0.000E+00  0.000E+00  1.07555E+03  1.909E+00  9.636E+00  7.227E-02  1.955E+00
   1    3    6     3     2    1.7175E+00  2.4905E-01   1.4684E+00  0.000E+00  0.000E+00  0.000E+00  1.07264E+03  1.727E+00  8.909E+00  6.682E-02  1.864E+00
   1    3    7     3     3    1.4684E+00  1.9718E-01   1.2712E+00  0.000E+00  0.000E+00  0.000E+00  1.06987E+03  1.555E+00  8.218E+00  5.547E-02  1.777E+00
   1    4    8     3     4    1.2712E+00  2.2567E-01   1.0456E+00  0.000E+00  0.000E+00  0.000E+00  1.06682E+03  1.364E+00  7.455E+00  6.709E-02  1.682E+00
   1    5    8     3     5    1.0456E+00  1.5790E-01   8.8768E-01  0.000E+00  0.000E+00  0.000E+00  1.06362E+03  1.164E+00  6.655E+00  4.991E-02  1.582E+00
   1    6    8     3     6    8.8768E-01  5.5980E-02   8.3170E-01  0.000E+00  0.000E+00  0.000E+00  1.06158E+03  1.036E+00  6.145E+00  1.844E-02  1.518E+00
   1    5   10     4     1    1.0000E+01  0.0000E+00   1.0000E+01  0.000E+00  0.000E+00  0.000E+00  1.07837E+03  6.385E-01  1.000E+01  0.000E+00  1.213E+00
   1    5    9     4     2    1.0000E+01  0.0000E+00   1.0000E+01  0.000E+00  0.000E+00  0.000E+00  1.07155E+03  6.385E-01  1.000E+01  0.000E+00  1.213E+00
   1    6    8     4     3    1.0000E+01  0.0000E+00   1.0000E+01  0.000E+00  0.000E+00  0.000E+00  1.06382E+03  6.385E-01  1.000E+01  0.000E+00  1.213E+00
   1    6    8     5     1    1.0832E+01  2.3262E-01   1.0599E+01  0.000E+00  0.000E+00  0.000E+00  1.05869E+03  6.881E-01  1.577E+01  6.307E-02  1.229E+00
   1    7    7     5     2    1.0599E+01  2.8607E-01   1.0313E+01  0.000E+00  0.000E+00  0.000E+00  1.05418E+03  6.822E-01  1.554E+01  7.769E-02  1.227E+00
   1    8    7     5     3    1.0313E+01  1.9716E-01   1.0116E+01  0.000E+00  0.000E+00  0.000E+00  1.04993E+03  6.766E-01  1.532E+01  5.363E-02  1.226E+00
   1    8    6     5     4    1.0116E+01  1.3929E-01   9.9766E+00  0.000E+00  0.000E+00  0.000E+00  1.04692E+03  6.727E-01  1.517E+01  3.792E-02  1.224E+00
   1    9    6     6     1    8.2799E+01  0.0000E+00   8.2799E+01  0.000E+00  0.000E+00  0.000E+00  1.04523E+03  2.505E+00  1.200E+01  0.000E+00  1.835E+00
   1   10    7     6     2    8.2799E+01  0.0000E+00   8.2799E+01  0.000E+00  0.000E+00  0.000E+00  1.04069E+03  2.505E+00  1.200E+01  0.000E+00  1.835E+00
   1   11    7     6     3    8.2799E+01  0.0000E+00   8.2799E+01  0.000E+00  0.000E+00  0.000E+00  1.03614E+03  2.505E+00  1.200E+01  0.000E+00  1.835E+00
   1   12    7     6     4    8.2799E+01  0.0000E+00   8.2799E+01  0.000E+00  0.000E+00  0.000E+00  1.03160E+03  2.505E+00  1.200E+01  0.000E+00  1.835E+00
   1   13    7     6     5    8.2799E+01  0.0000E+00   8.2799E+01  0.000E+00  0.000E+00  0.000E+00  1.02841E+03  2.505E+00  1.200E+01  0.000E+00  6.910E-01
   1   14    9     7     1    1.5000E+02  1.3493E+00   1.4865E+02  0.000E+00  0.000E+00  0.000E+00  1.03987E+03  2.288E+00  5.529E+01  5.593E-01  8.042E-01
   1   13    8     7     2    1.4865E+02  2.0394E+00   1.4661E+02  0.000E+00  0.000E+00  0.000E+00  1.03478E+03  2.279E+00  5.525E+01  6.147E-01  1.106E+00
   1   13    7     7     3    1.4661E+02  1.8686E+00   1.4474E+02  0.000E+00  0.000E+00  0.000E+00  1.02969E+03  2.268E+00  5.521E+01  5.583E-01  1.116E+00
   1   13    6     8     1    2.2754E+02  1.5419E+00   2.2600E+02  0.000E+00  0.000E+00  0.000E+00  1.02516E+03  3.289E+00  4.769E+01  4.860E-01  1.058E+00
   1   13    5     8     2    2.2600E+02  6.5036E-01   2.2535E+02  0.000E+00  0.000E+00  0.000E+00  1.01891E+03  3.283E+00  4.760E+01  4.851E-01  4.469E-01
   1   13    4     8     3    2.2535E+02 -1.0234E+00   2.2637E+02  0.000E+00  0.000E+00  0.000E+00  1.01266E+03  3.284E+00  4.762E+01  4.853E+00 -7.030E-02
   1   13    3     8     4    2.2637E+02 -2.9102E+00   2.2928E+02  0.000E+00  0.000E+00  0.000E+00  1.00642E+03  3.295E+00  4.777E+01  4.868E+00 -1.993E-01
   1   13    2     8     5    2.2928E+02 -2.2820E+00   2.3157E+02  0.000E+00  0.000E+00  0.000E+00  1.00018E+03  3.309E+00  4.798E+01  4.889E+00 -1.556E-01
   1   13    1     8     6    2.3157E+02 -1.7331E+00   2.3330E+02  0.000E+00  0.000E+00  0.000E+00  9.95195E+02  3.320E+00  4.813E+01  2.943E+00 -1.963E-01
   1    6    8     9     1    0.0000E+00  0.0000E+00   0.0000E+00  0.000E+00  0.000E+00  0.000E+00  1.07850E+03  0.000E+00  4.000E+00  0.000E+00  1.000E+00



 UBDSV3 SAVING "     NETRECHARGE" ON UNIT 100 AT TIME STEP    10, STRESS PERIOD   4
 UBDSV3 SAVING "    NETDISCHARGE" ON UNIT 101 AT TIME STEP    10, STRESS PERIOD   4
 UBDSV3 SAVING "           GW ET" ON UNIT  61 AT TIME STEP    10, STRESS PERIOD   4
 UBDSV3 SAVING "    UZF RECHARGE" ON UNIT  61 AT TIME STEP    10, STRESS PERIOD   4
 UBDSV3 SAVING " SURFACE LEAKAGE" ON UNIT  61 AT TIME STEP    10, STRESS PERIOD   4
 UBDSV3 SAVING "       HORT+DUNN" ON UNIT  61 AT TIME STEP    10, STRESS PERIOD   4
 UBDSV3 SAVING "  STORAGE CHANGE" ON UNIT  61 AT TIME STEP    10, STRESS PERIOD   4


UNSATURATED ZONE PACKAGE VOLUMETRIC BUDGET FOR  TIME STEP    10 STRESS PERIOD    4
  ------------------------------------------------------------------------------



     CUMULATIVE VOLUMES      L**3       RATES FOR THIS TIME STEP      L**3/T
     ------------------                 ------------------------

           IN:                                      IN:
           ---                                      ---
        INFILTRATION =     7424100.0000          INFILTRATION =           0.8475

          OUT:                                     OUT:
          ----                                     ----
              UZF ET =     1778508.7220                UZF ET =           0.2900
        UZF RECHARGE =   179128617.0605          UZF RECHARGE =          28.2730

            IN - OUT =  -173483025.7826              IN - OUT =         -27.7155

          STORAGE:                                 STORAGE:
          --------                                 --------
      STORAGE CHANGE =  -173481889.9907        STORAGE CHANGE =         -27.7154

 PERCENT DISCREPANCY IS DIFFERENCE BETWEEN IN-OUT MINUS CHANGE IN STORAGE
 DIVIDED BY THE AVERAGE OF IN AND OUT TIMES 100

 PERCENT DISCREPANCY =          -0.00     PERCENT DISCREPANCY =          -0.00






1
  VOLUMETRIC BUDGET FOR ENTIRE MODEL AT END OF TIME STEP   10, STRESS PERIOD   4
  ------------------------------------------------------------------------------

     CUMULATIVE VOLUMES      L**3       RATES FOR THIS TIME STEP      L**3/T
     ------------------                 ------------------------

           IN:                                      IN:
           ---                                      ---
             STORAGE =           0.0000               STORAGE =           0.0000
       CONSTANT HEAD =           0.0000         CONSTANT HEAD =           0.0000
               WELLS =           0.0000                 WELLS =           0.0000
     HEAD DEP BOUNDS =     2549996.2500       HEAD DEP BOUNDS =           0.2867
      STREAM LEAKAGE =    89033816.0000        STREAM LEAKAGE =          11.6503
        UZF RECHARGE =   179128592.0000          UZF RECHARGE =          28.2730
               GW ET =           0.0000                 GW ET =           0.0000
     SURFACE LEAKAGE =           0.0000       SURFACE LEAKAGE =           0.0000

            TOTAL IN =   270712416.0000              TOTAL IN =          40.2100

          OUT:                                     OUT:
          ----                                     ----
             STORAGE =   193468064.0000               STORAGE =          31.9632
       CONSTANT HEAD =           0.0000         CONSTANT HEAD =           0.0000
               WELLS =           0.0000                 WELLS =           0.0000
     HEAD DEP BOUNDS =     2520894.2500       HEAD DEP BOUNDS =           0.2958
      STREAM LEAKAGE =    71366392.0000        STREAM LEAKAGE =           7.9487
        UZF RECHARGE =           0.0000          UZF RECHARGE =           0.0000
               GW ET =     3341160.0000                 GW ET =       2.6012E-10
     SURFACE LEAKAGE =           0.0000       SURFACE LEAKAGE =           0.0000

           TOTAL OUT =   270696512.0000             TOTAL OUT =          40.2076

            IN - OUT =       15904.0000              IN - OUT =       2.3804E-03

 PERCENT DISCREPANCY =           0.01     PERCENT DISCREPANCY =           0.01






         TIME SUMMARY AT END OF TIME STEP   10 IN STRESS PERIOD    4
                    SECONDS     MINUTES      HOURS       DAYS        YEARS
                    -----------------------------------------------------------
   TIME STEP LENGTH  87600.      1460.0      24.333      1.0139     2.77588E-03
 STRESS PERIOD TIME 8.76000E+05  14600.      243.33      10.139     2.77588E-02
         TOTAL TIME 8.76000E+06 1.46000E+05  2433.3      101.39     0.27759    
1
 
 SOLVING FOR HEAD 
                                                   Max.-Head-Change                         Max.-Flux-Residual
  Residual-Control   Outer-Iter.   Inner-Iter.     Column Row Layer    Maximum-Head-Change  Column Row Layer    Maximum-Flux-Residual          L2-NORM 
          0                 1           2             2    2     1       0.1174472062E-01       2    2    1         0.6127448968E+00      0.2142776364E+01
          0                 2           2             7    3     1       0.3702186461E-02       2    2    1         0.1063153373E+00      0.5426311816E+00
          0                 3           2             7    3     1       0.1655795366E-02       7    3    1         0.4317464664E-01      0.2040190775E+00
          0                 4           2             7    3     1       0.7405422496E-03       7    3    1         0.1930975091E-01      0.8843736151E-01
          0                 5           2             7    3     1       0.3311971135E-03       7    3    1         0.8636123003E-02      0.3937662114E-01
          0                 6           2             7    3     1       0.1481209317E-03       7    3    1         0.3862373899E-02      0.1760661675E-01
          0                 7           1             7    3     1       0.6624293190E-04       7    3    1         0.1727360396E-02      0.7877943462E-02
          0                 8           1             7    3     1       0.2962484147E-04       7    3    1         0.7725112815E-03      0.3525467979E-02
          0                 9           1             7    3     1       0.1324848188E-04       7    3    1         0.3454777753E-03      0.1577800625E-02
          0                10           1             7    3     1       0.5924749697E-05       7    3    1         0.1545001949E-03      0.7061765142E-03

    ------------------------------------------------
       NWT REQUIRED           10 OUTER ITERATIONS 
       AND A TOTAL OF         16 INNER ITERATIONS.
    ------------------------------------------------

 NO OUTPUT CONTROL FOR STRESS PERIOD    4   TIME STEP   11
 
 SOLVING FOR HEAD 
                                                   Max.-Head-Change                         Max.-Flux-Residual
  Residual-Control   Outer-Iter.   Inner-Iter.     Column Row Layer    Maximum-Head-Change  Column Row Layer    Maximum-Flux-Residual          L2-NORM 
          0                 1           2             2    2     1       0.1167679022E-01       2    2    1         0.6091579508E+00      0.2126096949E+01
          0                 2           2             7    3     1       0.3683988923E-02       2    2    1         0.1057047141E+00      0.5410904246E+00
          0                 3           2             7    3     1       0.1647695257E-02       7    3    1         0.4296261437E-01      0.2036397650E+00
          0                 4           2             7    3     1       0.7369366246E-03       7    3    1         0.1921537042E-01      0.8828094757E-01
          0                 5           2             7    3     1       0.3295920870E-03       7    3    1         0.8594110928E-02      0.3930749193E-01
          0                 6           2             7    3     1       0.1474064424E-03       7    3    1         0.3843672334E-02      0.1757585891E-01
          0                 7           1             7    3     1       0.6592486269E-04       7    3    1         0.1719035211E-02      0.7864246449E-02
          0                 8           1             7    3     1       0.2948324261E-04       7    3    1         0.7688051446E-03      0.3519368527E-02
          0                 9           1             7    3     1       0.1318544327E-04       7    3    1         0.3438278687E-03      0.1575084424E-02
          0                10           1             7    3     1       0.5896684612E-05       7    3    1         0.1537656634E-03      0.7049670795E-03

    ------------------------------------------------
       NWT REQUIRED           10 OUTER ITERATIONS 
       AND A TOTAL OF         16 INNER ITERATIONS.
    ------------------------------------------------

 NO OUTPUT CONTROL FOR STRESS PERIOD    4   TIME STEP   12
 
 SOLVING FOR HEAD 
                                                   Max.-Head-Change                         Max.-Flux-Residual
  Residual-Control   Outer-Iter.   Inner-Iter.     Column Row Layer    Maximum-Head-Change  Column Row Layer    Maximum-Flux-Residual          L2-NORM 
          0                 1           2             2    2     1       0.1161034976E-01       2    2    1         0.6056498995E+00      0.2113961052E+01
          0                 2           2             7    3     1       0.3666037514E-02       2    2    1         0.1051074618E+00      0.5400067699E+00
          0                 3           2             7    3     1       0.1639704593E-02       7    3    1         0.4275344938E-01      0.2032834467E+00
          0                 4           2             7    3     1       0.7333796654E-03       7    3    1         0.1912226490E-01      0.8812571559E-01
          0                 5           2             7    3     1       0.3280087009E-03       7    3    1         0.8552665789E-02      0.3923842973E-01
          0                 6           2             7    3     1       0.1467015759E-03       7    3    1         0.3825222866E-02      0.1754510157E-01
          0                 7           1             7    3     1       0.6561107287E-04       7    3    1         0.1710822130E-02      0.7850549975E-02
          0                 8           1             7    3     1       0.2934354708E-04       7    3    1         0.7651488577E-03      0.3513269360E-02
          0                 9           1             7    3     1       0.1312325041E-04       7    3    1         0.3422001225E-03      0.1572368135E-02
          0                10           1             7    3     1       0.5868996319E-05       7    3    1         0.1530409922E-03      0.7037607278E-03

    ------------------------------------------------
       NWT REQUIRED           10 OUTER ITERATIONS 
       AND A TOTAL OF         16 INNER ITERATIONS.
    ------------------------------------------------

 NO OUTPUT CONTROL FOR STRESS PERIOD    4   TIME STEP   13
 
 SOLVING FOR HEAD 
                                                   Max.-Head-Change                         Max.-Flux-Residual
  Residual-Control   Outer-Iter.   Inner-Iter.     Column Row Layer    Maximum-Head-Change  Column Row Layer    Maximum-Flux-Residual          L2-NORM 
          0                 1           2             2    2     1       0.1154539894E-01       2    2    1         0.6022207245E+00      0.2104005351E+01
          0                 2           2             7    3     1       0.3648326190E-02       2    2    1         0.1045235778E+00      0.5390028922E+00
          0                 3           2             7    3     1       0.1631820371E-02       7    3    1         0.4254707973E-01      0.2029290632E+00
          0                 4           2             7    3     1       0.7298698997E-03       7    3    1         0.1903039871E-01      0.8797008882E-01
          0                 5           2             7    3     1       0.3264462401E-03       7    3    1         0.8511770146E-02      0.3916915371E-01
          0                 6           2             7    3     1       0.1460059882E-03       7    3    1         0.3807017048E-02      0.1751424344E-01
          0                 7           1             7    3     1       0.6530139751E-04       7    3    1         0.1702717087E-02      0.7836807359E-02
          0                 8           1             7    3     1       0.2920567612E-04       7    3    1         0.7615404780E-03      0.3507148659E-02
          0                 9           1             7    3     1       0.1306186741E-04       7    3    1         0.3405936214E-03      0.1569642830E-02
          0                10           1             7    3     1       0.5841665560E-05       7    3    1         0.1523257293E-03      0.7025432134E-03

    ------------------------------------------------
       NWT REQUIRED           10 OUTER ITERATIONS 
       AND A TOTAL OF         16 INNER ITERATIONS.
    ------------------------------------------------

 NO OUTPUT CONTROL FOR STRESS PERIOD    4   TIME STEP   14
 
 SOLVING FOR HEAD 
                                                   Max.-Head-Change                         Max.-Flux-Residual
  Residual-Control   Outer-Iter.   Inner-Iter.     Column Row Layer    Maximum-Head-Change  Column Row Layer    Maximum-Flux-Residual          L2-NORM 
          0                 1           2             2    2     1       0.1148193810E-01       2    2    1         0.5988704025E+00      0.2095293905E+01
          0                 2           2             7    3     1       0.3630850512E-02       2    2    1         0.1039530695E+00      0.5380421201E+00
          0                 3           2             7    3     1       0.1624040942E-02       7    3    1         0.4234345532E-01      0.2025767259E+00
          0                 4           2             7    3     1       0.7264067381E-03       7    3    1         0.1893975336E-01      0.8781466550E-01
          0                 5           2             7    3     1       0.3249045051E-03       7    3    1         0.8471417419E-02      0.3909991794E-01
          0                 6           2             7    3     1       0.1453196172E-03       7    3    1         0.3789052670E-02      0.1748340574E-01
          0                 7           1             7    3     1       0.6499582122E-04       7    3    1         0.1694719423E-02      0.7823071954E-02
          0                 8           1             7    3     1       0.2906962860E-04       7    3    1         0.7579798585E-03      0.3501032364E-02
          0                 9           1             7    3     1       0.1300129451E-04       7    3    1         0.3390083602E-03      0.1566918440E-02
          0                10           1             7    3     1       0.5814696461E-05       7    3    1         0.1516199251E-03      0.7013302436E-03

    ------------------------------------------------
       NWT REQUIRED           10 OUTER ITERATIONS 
       AND A TOTAL OF         16 INNER ITERATIONS.
    ------------------------------------------------

 OUTPUT CONTROL FOR STRESS PERIOD    4   TIME STEP   15
    PRINT BUDGET
    PRINT HEAD FOR ALL LAYERS
    SAVE HEAD FOR ALL LAYERS
    SAVE BUDGET
 UBUDSV SAVING "         STORAGE" ON UNIT102 AT TIME STEP    15, STRESS PERIOD    4
 UBUDSV SAVING "   CONSTANT HEAD" ON UNIT102 AT TIME STEP    15, STRESS PERIOD    4
 UBUDSV SAVING "FLOW RIGHT FACE " ON UNIT102 AT TIME STEP    15, STRESS PERIOD    4
 UBUDSV SAVING "FLOW FRONT FACE " ON UNIT102 AT TIME STEP    15, STRESS PERIOD    4

  HEAD DEP BOUNDS   PERIOD    4   STEP    15
 BOUNDARY      1   LAYER   1   ROW    13   COL     1   RATE   -0.296667    
 BOUNDARY      2   LAYER   1   ROW    14   COL     9   RATE    0.286277    



 STREAM LISTING     PERIOD      4   STEP       15

 LAYER ROW COL. STREAM  RCH.  FLOW INTO     FLOW TO   FLOW OUT OF   OVRLND.     DIRECT     STREAM       STREAM     STREAM     STREAM   STREAMBED  STREAMBED
                SEG.NO.  NO.  STRM. RCH.    AQUIFER    STRM. RCH.    RUNOFF     PRECIP       ET          HEAD       DEPTH      WIDTH   CONDCTNC.   GRADIENT

   1    1    1     1     1    7.7000E+01  4.2703E-01   7.6573E+01  0.000E+00  0.000E+00  0.000E+00  1.09476E+03  1.708E+00  2.016E+01  9.070E-02  1.569E+00
   1    2    2     1     2    7.6573E+01  6.6237E-01   7.5911E+01  0.000E+00  0.000E+00  0.000E+00  1.08976E+03  1.706E+00  2.011E+01  1.408E-01  1.569E+00
   1    3    3     1     3    7.5911E+01  5.6590E-01   7.5345E+01  0.000E+00  0.000E+00  0.000E+00  1.08412E+03  1.703E+00  2.006E+01  1.203E-01  1.568E+00
   1    3    4     1     4    7.5345E+01  5.2193E-01   7.4823E+01  0.000E+00  0.000E+00  0.000E+00  1.07911E+03  1.700E+00  2.001E+01  1.110E-01  1.567E+00
   1    4    5     2     1    7.2823E+01  0.0000E+00   7.2823E+01  0.000E+00  0.000E+00  0.000E+00  1.07423E+03  2.294E+00  1.200E+01  0.000E+00  1.765E+00
   1    5    6     2     2    7.2823E+01  0.0000E+00   7.2823E+01  0.000E+00  0.000E+00  0.000E+00  1.06880E+03  2.294E+00  1.200E+01  0.000E+00  1.765E+00
   1    6    6     2     3    7.2823E+01  0.0000E+00   7.2823E+01  0.000E+00  0.000E+00  0.000E+00  1.06409E+03  2.294E+00  1.200E+01  0.000E+00  1.765E+00
   1    7    6     2     4    7.2823E+01  0.0000E+00   7.2823E+01  0.000E+00  0.000E+00  0.000E+00  1.05937E+03  2.294E+00  1.200E+01  0.000E+00  1.765E+00
   1    8    6     2     5    7.2823E+01  0.0000E+00   7.2823E+01  0.000E+00  0.000E+00  0.000E+00  1.05465E+03  2.294E+00  1.200E+01  0.000E+00  1.765E+00
   1    3    5     3     1    2.0000E+00  2.8252E-01   1.7175E+00  0.000E+00  0.000E+00  0.000E+00  1.07555E+03  1.909E+00  9.636E+00  7.227E-02  1.955E+00
   1    3    6     3     2    1.7175E+00  2.4905E-01   1.4684E+00  0.000E+00  0.000E+00  0.000E+00  1.07264E+03  1.727E+00  8.909E+00  6.682E-02  1.864E+00
   1    3    7     3     3    1.4684E+00  1.9718E-01   1.2712E+00  0.000E+00  0.000E+00  0.000E+00  1.06987E+03  1.555E+00  8.218E+00  5.547E-02  1.777E+00
   1    4    8     3     4    1.2712E+00  2.2567E-01   1.0456E+00  0.000E+00  0.000E+00  0.000E+00  1.06682E+03  1.364E+00  7.455E+00  6.709E-02  1.682E+00
   1    5    8     3     5    1.0456E+00  1.5790E-01   8.8768E-01  0.000E+00  0.000E+00  0.000E+00  1.06362E+03  1.164E+00  6.655E+00  4.991E-02  1.582E+00
   1    6    8     3     6    8.8768E-01  5.5980E-02   8.3170E-01  0.000E+00  0.000E+00  0.000E+00  1.06158E+03  1.036E+00  6.145E+00  1.844E-02  1.518E+00
   1    5   10     4     1    1.0000E+01  0.0000E+00   1.0000E+01  0.000E+00  0.000E+00  0.000E+00  1.07837E+03  6.385E-01  1.000E+01  0.000E+00  1.213E+00
   1    5    9     4     2    1.0000E+01  0.0000E+00   1.0000E+01  0.000E+00  0.000E+00  0.000E+00  1.07155E+03  6.385E-01  1.000E+01  0.000E+00  1.213E+00
   1    6    8     4     3    1.0000E+01  0.0000E+00   1.0000E+01  0.000E+00  0.000E+00  0.000E+00  1.06382E+03  6.385E-01  1.000E+01  0.000E+00  1.213E+00
   1    6    8     5     1    1.0832E+01  2.3262E-01   1.0599E+01  0.000E+00  0.000E+00  0.000E+00  1.05869E+03  6.881E-01  1.577E+01  6.307E-02  1.229E+00
   1    7    7     5     2    1.0599E+01  2.8607E-01   1.0313E+01  0.000E+00  0.000E+00  0.000E+00  1.05418E+03  6.822E-01  1.554E+01  7.769E-02  1.227E+00
   1    8    7     5     3    1.0313E+01  1.9716E-01   1.0116E+01  0.000E+00  0.000E+00  0.000E+00  1.04993E+03  6.766E-01  1.532E+01  5.363E-02  1.226E+00
   1    8    6     5     4    1.0116E+01  1.3929E-01   9.9766E+00  0.000E+00  0.000E+00  0.000E+00  1.04692E+03  6.727E-01  1.517E+01  3.792E-02  1.224E+00
   1    9    6     6     1    8.2799E+01  0.0000E+00   8.2799E+01  0.000E+00  0.000E+00  0.000E+00  1.04523E+03  2.505E+00  1.200E+01  0.000E+00  1.835E+00
   1   10    7     6     2    8.2799E+01  0.0000E+00   8.2799E+01  0.000E+00  0.000E+00  0.000E+00  1.04069E+03  2.505E+00  1.200E+01  0.000E+00  1.835E+00
   1   11    7     6     3    8.2799E+01  0.0000E+00   8.2799E+01  0.000E+00  0.000E+00  0.000E+00  1.03614E+03  2.505E+00  1.200E+01  0.000E+00  1.835E+00
   1   12    7     6     4    8.2799E+01  0.0000E+00   8.2799E+01  0.000E+00  0.000E+00  0.000E+00  1.03160E+03  2.505E+00  1.200E+01  0.000E+00  1.835E+00
   1   13    7     6     5    8.2799E+01  0.0000E+00   8.2799E+01  0.000E+00  0.000E+00  0.000E+00  1.02841E+03  2.505E+00  1.200E+01  0.000E+00  6.853E-01
   1   14    9     7     1    1.5000E+02  1.3434E+00   1.4866E+02  0.000E+00  0.000E+00  0.000E+00  1.03987E+03  2.288E+00  5.529E+01  5.593E-01  8.007E-01
   1   13    8     7     2    1.4866E+02  2.0314E+00   1.4663E+02  0.000E+00  0.000E+00  0.000E+00  1.03478E+03  2.279E+00  5.525E+01  6.147E-01  1.101E+00
   1   13    7     7     3    1.4663E+02  1.8591E+00   1.4477E+02  0.000E+00  0.000E+00  0.000E+00  1.02969E+03  2.268E+00  5.521E+01  5.583E-01  1.110E+00
   1   13    6     8     1    2.2757E+02  1.5272E+00   2.2604E+02  0.000E+00  0.000E+00  0.000E+00  1.02516E+03  3.289E+00  4.769E+01  4.860E-01  1.047E+00
   1   13    5     8     2    2.2604E+02  6.3732E-01   2.2540E+02  0.000E+00  0.000E+00  0.000E+00  1.01891E+03  3.283E+00  4.761E+01  4.851E-01  4.379E-01
   1   13    4     8     3    2.2540E+02 -1.1361E+00   2.2654E+02  0.000E+00  0.000E+00  0.000E+00  1.01266E+03  3.285E+00  4.763E+01  4.853E+00 -7.803E-02
   1   13    3     8     4    2.2654E+02 -3.0161E+00   2.2955E+02  0.000E+00  0.000E+00  0.000E+00  1.00642E+03  3.296E+00  4.779E+01  4.870E+00 -2.064E-01
   1   13    2     8     5    2.2955E+02 -2.3796E+00   2.3193E+02  0.000E+00  0.000E+00  0.000E+00  1.00019E+03  3.311E+00  4.800E+01  4.892E+00 -1.622E-01
   1   13    1     8     6    2.3193E+02 -1.7972E+00   2.3373E+02  0.000E+00  0.000E+00  0.000E+00  9.95197E+02  3.322E+00  4.817E+01  2.945E+00 -2.034E-01
   1    6    8     9     1    0.0000E+00  0.0000E+00   0.0000E+00  0.000E+00  0.000E+00  0.000E+00  1.07850E+03  0.000E+00  4.000E+00  0.000E+00  1.000E+00



 UBDSV3 SAVING "     NETRECHARGE" ON UNIT 100 AT TIME STEP    15, STRESS PERIOD   4
 UBDSV3 SAVING "    NETDISCHARGE" ON UNIT 101 AT TIME STEP    15, STRESS PERIOD   4
 UBDSV3 SAVING "           GW ET" ON UNIT  61 AT TIME STEP    15, STRESS PERIOD   4
 UBDSV3 SAVING "    UZF RECHARGE" ON UNIT  61 AT TIME STEP    15, STRESS PERIOD   4
 UBDSV3 SAVING " SURFACE LEAKAGE" ON UNIT  61 AT TIME STEP    15, STRESS PERIOD   4
 UBDSV3 SAVING "       HORT+DUNN" ON UNIT  61 AT TIME STEP    15, STRESS PERIOD   4
 UBDSV3 SAVING "  STORAGE CHANGE" ON UNIT  61 AT TIME STEP    15, STRESS PERIOD   4


UNSATURATED ZONE PACKAGE VOLUMETRIC BUDGET FOR  TIME STEP    15 STRESS PERIOD    4
  ------------------------------------------------------------------------------



     CUMULATIVE VOLUMES      L**3       RATES FOR THIS TIME STEP      L**3/T
     ------------------                 ------------------------

           IN:                                      IN:
           ---                                      ---
        INFILTRATION =     7795305.0000          INFILTRATION =           0.8475

          OUT:                                     OUT:
          ----                                     ----
              UZF ET =     1905542.6744                UZF ET =           0.2900
        UZF RECHARGE =   191453460.2446          UZF RECHARGE =          28.0729

            IN - OUT =  -185563697.9190              IN - OUT =         -27.5154

          STORAGE:                                 STORAGE:
          --------                                 --------
      STORAGE CHANGE =  -185562525.4789        STORAGE CHANGE =         -27.5153

 PERCENT DISCREPANCY IS DIFFERENCE BETWEEN IN-OUT MINUS CHANGE IN STORAGE
 DIVIDED BY THE AVERAGE OF IN AND OUT TIMES 100

 PERCENT DISCREPANCY =          -0.00     PERCENT DISCREPANCY =          -0.00






1
              HEAD IN LAYER   1 AT END OF TIME STEP    15 IN STRESS PERIOD    4
  -----------------------------------------------------------------------------

           1       2       3       4       5       6       7       8       9      10
 ...................................................................................
   1  1021.52 1021.01 6999.00 6999.00 6999.00 6999.00 6999.00 6999.00 6999.00 6999.00
   2  1021.55 1021.38 1020.91 6999.00 6999.00 1022.02 1022.07 1022.05 6999.00 6999.00
   3  6999.00 1021.22 1021.12 1021.09 1021.55 1021.89 1022.07 1021.80 6999.00 6999.00
   4  1021.66 1021.25 1020.94 1020.68 1020.66 1020.72 1021.16 1021.91 1021.46 6999.00
   5  1021.57 1021.12 1020.78 1020.47 1020.48 1020.57 1020.73 1020.97 1020.93 1020.93
   6  1021.43 1020.93 1020.59 1020.30 1020.33 1020.46 1020.68 1020.97 1021.25 1021.56
   7  1021.26 1020.59 1020.30 1020.06 1020.14 1020.35 1020.68 1020.84 1021.53 6999.00
   8  6999.00 1019.95 1019.85 1019.71 1019.86 1020.18 1020.54 1021.15 1022.07 6999.00
   9  6999.00 1018.87 1019.02 1019.15 1019.44 1019.90 1020.38 1021.45 1022.93 6999.00
  10  6999.00 1017.08 1017.64 1018.29 1018.93 1019.76 1020.52 1022.06 1023.99 1024.64
  11  6999.00 1013.78 1014.98 1016.95 1018.34 1019.86 1021.24 1023.61 1026.19 6999.00
  12  1002.06 1007.58 1011.31 1014.81 1017.72 1020.46 1022.83 1027.01 1030.43 6999.00
  13   995.81 1000.67 1007.04 1012.89 1017.59 1022.02 1026.36 1031.47 1034.42 6999.00
  14  6999.00 1006.25 1009.20 1013.65 1018.05 1022.34 1027.37 1033.12 1037.47 6999.00
  15  6999.00 6999.00 1012.72 1015.30 1018.56 1021.47 6999.00 6999.00 6999.00 6999.00

 HEAD WILL BE SAVED ON UNIT   62 AT END OF TIME STEP   15, STRESS PERIOD    4
1
  VOLUMETRIC BUDGET FOR ENTIRE MODEL AT END OF TIME STEP   15, STRESS PERIOD   4
  ------------------------------------------------------------------------------

     CUMULATIVE VOLUMES      L**3       RATES FOR THIS TIME STEP      L**3/T
     ------------------                 ------------------------

           IN:                                      IN:
           ---                                      ---
             STORAGE =           0.0000               STORAGE =           0.0000
       CONSTANT HEAD =           0.0000         CONSTANT HEAD =           0.0000
               WELLS =           0.0000                 WELLS =           0.0000
     HEAD DEP BOUNDS =     2675455.5000       HEAD DEP BOUNDS =           0.2863
      STREAM LEAKAGE =    94123056.0000        STREAM LEAKAGE =          11.5991
        UZF RECHARGE =   191453424.0000          UZF RECHARGE =          28.0729
               GW ET =           0.0000                 GW ET =           0.0000
     SURFACE LEAKAGE =           0.0000       SURFACE LEAKAGE =           0.0000

            TOTAL IN =   288251936.0000              TOTAL IN =          39.9583

          OUT:                                     OUT:
          ----                                     ----
             STORAGE =   207289344.0000               STORAGE =          31.3303
       CONSTANT HEAD =           0.0000         CONSTANT HEAD =           0.0000
               WELLS =           0.0000                 WELLS =           0.0000
     HEAD DEP BOUNDS =     2650686.5000       HEAD DEP BOUNDS =           0.2967
      STREAM LEAKAGE =    74953840.0000        STREAM LEAKAGE =           8.3290
        UZF RECHARGE =           0.0000          UZF RECHARGE =           0.0000
               GW ET =     3341160.0000                 GW ET =       6.0868E-08
     SURFACE LEAKAGE =           0.0000       SURFACE LEAKAGE =           0.0000

           TOTAL OUT =   288235040.0000             TOTAL OUT =          39.9559

            IN - OUT =       16896.0000              IN - OUT =       2.3537E-03

 PERCENT DISCREPANCY =           0.01     PERCENT DISCREPANCY =           0.01






         TIME SUMMARY AT END OF TIME STEP   15 IN STRESS PERIOD    4
                    SECONDS     MINUTES      HOURS       DAYS        YEARS
                    -----------------------------------------------------------
   TIME STEP LENGTH  87600.      1460.0      24.333      1.0139     2.77588E-03
 STRESS PERIOD TIME 1.31400E+06  21900.      365.00      15.208     4.16381E-02
         TOTAL TIME 9.19800E+06 1.53300E+05  2555.0      106.46     0.29147    
1
 
 SOLVING FOR HEAD 
                                                   Max.-Head-Change                         Max.-Flux-Residual
  Residual-Control   Outer-Iter.   Inner-Iter.     Column Row Layer    Maximum-Head-Change  Column Row Layer    Maximum-Flux-Residual          L2-NORM 
          0                 1           2             2    2     1       0.1141980727E-01       2    2    1         0.5955905265E+00      0.2087618309E+01
          0                 2           2             7    3     1       0.3608633260E-02       2    2    1         0.1033944947E+00      0.5371066543E+00
          0                 3           2             7    3     1       0.1612761686E-02       7    3    1         0.4207778829E-01      0.2022214600E+00
          0                 4           2             7    3     1       0.7207813209E-03       7    3    1         0.1880537171E-01      0.8765652473E-01
          0                 5           2             7    3     1       0.3221374697E-03       7    3    1         0.8404584216E-02      0.3902906045E-01
          0                 6           2             7    3     1       0.1439735976E-03       7    3    1         0.3756252043E-02      0.1745167606E-01
          0                 7           1             7    3     1       0.6434699040E-04       7    3    1         0.1678792581E-02      0.7808872003E-02
          0                 8           1             7    3     1       0.2875924067E-04       7    3    1         0.7503141110E-03      0.3494678175E-02
          0                 9           1             7    3     1       0.1285376789E-04       7    3    1         0.3353458865E-03      0.1564076933E-02
          0                10           1             7    3     1       0.5744965753E-05       7    3    1         0.1498810539E-03      0.7000601793E-03

    ------------------------------------------------
       NWT REQUIRED           10 OUTER ITERATIONS 
       AND A TOTAL OF         16 INNER ITERATIONS.
    ------------------------------------------------

 NO OUTPUT CONTROL FOR STRESS PERIOD    4   TIME STEP   16
 
 SOLVING FOR HEAD 
                                                   Max.-Head-Change                         Max.-Flux-Residual
  Residual-Control   Outer-Iter.   Inner-Iter.     Column Row Layer    Maximum-Head-Change  Column Row Layer    Maximum-Flux-Residual          L2-NORM 
          0                 1           2             2    2     1       0.1135909106E-01       2    2    1         0.5923854993E+00      0.2080805912E+01
          0                 2           2             7    3     1       0.3587657940E-02       2    2    1         0.1028486206E+00      0.5361956614E+00
          0                 3           2             7    3     1       0.1603473418E-02       7    3    1         0.4183362450E-01      0.2018683995E+00
          0                 4           2             7    3     1       0.7166680262E-03       7    3    1         0.1869725005E-01      0.8750003699E-01
          0                 5           2             7    3     1       0.3203157811E-03       7    3    1         0.8356702112E-02      0.3895935137E-01
          0                 6           2             7    3     1       0.1431667566E-03       7    3    1         0.3735045835E-02      0.1742063853E-01
          0                 7           1             7    3     1       0.6398961011E-04       7    3    1         0.1669400064E-02      0.7795054079E-02
          0                 8           1             7    3     1       0.2860093238E-04       7    3    1         0.7461537548E-03      0.3488526532E-02
          0                 9           1             7    3     1       0.1278363800E-04       7    3    1         0.3335029652E-03      0.1561338312E-02
          0                10           1             7    3     1       0.5713896333E-05       7    3    1         0.1490646342E-03      0.6988400644E-03

    ------------------------------------------------
       NWT REQUIRED           10 OUTER ITERATIONS 
       AND A TOTAL OF         16 INNER ITERATIONS.
    ------------------------------------------------

 NO OUTPUT CONTROL FOR STRESS PERIOD    4   TIME STEP   17
 
 SOLVING FOR HEAD 
                                                   Max.-Head-Change                         Max.-Flux-Residual
  Residual-Control   Outer-Iter.   Inner-Iter.     Column Row Layer    Maximum-Head-Change  Column Row Layer    Maximum-Flux-Residual          L2-NORM 
          0                 1           2             2    2     1       0.1129967216E-01       2    2    1         0.5892491484E+00      0.2074718416E+01
          0                 2           2             7    3     1       0.3566093584E-02       2    2    1         0.1023143904E+00      0.5353081054E+00
          0                 3           2             7    3     1       0.1593926998E-02       7    3    1         0.4158261704E-01      0.2015164712E+00
          0                 4           2             7    3     1       0.7124415987E-03       7    3    1         0.1858612910E-01      0.8734369852E-01
          0                 5           2             7    3     1       0.3184445146E-03       7    3    1         0.8307505600E-02      0.3888969712E-01
          0                 6           2             7    3     1       0.1423381906E-03       7    3    1         0.3713263625E-02      0.1738962490E-01
          0                 7           1             7    3     1       0.6362270971E-04       7    3    1         0.1659755137E-02      0.7781247160E-02
          0                 8           1             7    3     1       0.2843845362E-04       7    3    1         0.7418828017E-03      0.3482379603E-02
          0                 9           1             7    3     1       0.1271168031E-04       7    3    1         0.3316115735E-03      0.1558602129E-02
          0                10           1             7    3     1       0.5682026309E-05       7    3    1         0.1482269778E-03      0.6976219244E-03

    ------------------------------------------------
       NWT REQUIRED           10 OUTER ITERATIONS 
       AND A TOTAL OF         16 INNER ITERATIONS.
    ------------------------------------------------

 NO OUTPUT CONTROL FOR STRESS PERIOD    4   TIME STEP   18
 
 SOLVING FOR HEAD 
                                                   Max.-Head-Change                         Max.-Flux-Residual
  Residual-Control   Outer-Iter.   Inner-Iter.     Column Row Layer    Maximum-Head-Change  Column Row Layer    Maximum-Flux-Residual          L2-NORM 
          0                 1           2             2    2     1       0.1124155630E-01       2    2    1         0.5861817589E+00      0.2069242679E+01
          0                 2           2             7    3     1       0.3545092499E-02       2    2    1         0.1017918574E+00      0.5344403913E+00
          0                 3           2             7    3     1       0.1584628808E-02       7    3    1         0.4133816054E-01      0.2011654957E+00
          0                 4           2             7    3     1       0.7083245681E-03       7    3    1         0.1847789511E-01      0.8718745893E-01
          0                 5           2             7    3     1       0.3166214636E-03       7    3    1         0.8259581423E-02      0.3882007339E-01
          0                 6           2             7    3     1       0.1415308755E-03       7    3    1         0.3692042179E-02      0.1735862367E-01
          0                 7           1             7    3     1       0.6326517723E-04       7    3    1         0.1650357379E-02      0.7767443160E-02
          0                 8           1             7    3     1       0.2828010319E-04       7    3    1         0.7377207862E-03      0.3476234765E-02
          0                 9           1             7    3     1       0.1264154292E-04       7    3    1         0.3297682081E-03      0.1555865098E-02
          0                10           1             7    3     1       0.5650958390E-05       7    3    1         0.1474104906E-03      0.6964051870E-03

    ------------------------------------------------
       NWT REQUIRED           10 OUTER ITERATIONS 
       AND A TOTAL OF         16 INNER ITERATIONS.
    ------------------------------------------------

 NO OUTPUT CONTROL FOR STRESS PERIOD    4   TIME STEP   19
 
 SOLVING FOR HEAD 
                                                   Max.-Head-Change                         Max.-Flux-Residual
  Residual-Control   Outer-Iter.   Inner-Iter.     Column Row Layer    Maximum-Head-Change  Column Row Layer    Maximum-Flux-Residual          L2-NORM 
          0                 1           2             2    2     1       0.1118470920E-01       2    2    1         0.5831815135E+00      0.2063935898E+01
          0                 2           2             7    3     1       0.3524416034E-02       2    2    1         0.1012807143E+00      0.5335190638E+00
          0                 3           2             7    3     1       0.1575473698E-02       7    3    1         0.4109747955E-01      0.2008082889E+00
          0                 4           2             7    3     1       0.7042706046E-03       7    3    1         0.1837132524E-01      0.8703106231E-01
          0                 5           2             7    3     1       0.3148262116E-03       7    3    1         0.8212390760E-02      0.3875060906E-01
          0                 6           2             7    3     1       0.1407358153E-03       7    3    1         0.3671144079E-02      0.1732770788E-01
          0                 7           1             7    3     1       0.6291304639E-04       7    3    1         0.1641102157E-02      0.7753679624E-02
          0                 8           1             7    3     1       0.2812413469E-04       7    3    1         0.7336216185E-03      0.3470105667E-02
          0                 9           1             7    3     1       0.1257245562E-04       7    3    1         0.3279525515E-03      0.1553136837E-02
          0                10           1             7    3     1       0.5620353553E-05       7    3    1         0.1466062217E-03      0.6951885871E-03

    ------------------------------------------------
       NWT REQUIRED           10 OUTER ITERATIONS 
       AND A TOTAL OF         16 INNER ITERATIONS.
    ------------------------------------------------

 NO OUTPUT CONTROL FOR STRESS PERIOD    4   TIME STEP   20
 
 SOLVING FOR HEAD 
                                                   Max.-Head-Change                         Max.-Flux-Residual
  Residual-Control   Outer-Iter.   Inner-Iter.     Column Row Layer    Maximum-Head-Change  Column Row Layer    Maximum-Flux-Residual          L2-NORM 
          0                 1           2             2    2     1       0.1112909766E-01       2    2    1         0.5802466471E+00      0.2058980514E+01
          0                 2           2             7    3     1       0.3504273133E-02       2    2    1         0.1007806638E+00      0.5326289842E+00
          0                 3           2             7    3     1       0.1566553679E-02       7    3    1         0.4086300379E-01      0.2004564187E+00
          0                 4           2             7    3     1       0.7003202308E-03       7    3    1         0.1826748949E-01      0.8687553716E-01
          0                 5           2             7    3     1       0.3130766082E-03       7    3    1         0.8166404856E-02      0.3868136513E-01
          0                 6           2             7    3     1       0.1399608715E-03       7    3    1         0.3650776858E-02      0.1729687373E-01
          0                 7           1             7    3     1       0.6256978036E-04       7    3    1         0.1632080877E-02      0.7739950353E-02
          0                 8           1             7    3     1       0.2797207356E-04       7    3    1         0.7296255499E-03      0.3463992677E-02
          0                 9           1             7    3     1       0.1250508996E-04       7    3    1         0.3261823301E-03      0.1550414329E-02
          0                10           1             7    3     1       0.5590507802E-05       7    3    1         0.1458219805E-03      0.6939759457E-03

    ------------------------------------------------
       NWT REQUIRED           10 OUTER ITERATIONS 
       AND A TOTAL OF         16 INNER ITERATIONS.
    ------------------------------------------------

 NO OUTPUT CONTROL FOR STRESS PERIOD    4   TIME STEP   21
 
 SOLVING FOR HEAD 
                                                   Max.-Head-Change                         Max.-Flux-Residual
  Residual-Control   Outer-Iter.   Inner-Iter.     Column Row Layer    Maximum-Head-Change  Column Row Layer    Maximum-Flux-Residual          L2-NORM 
          0                 1           2             2    2     1       0.1107468945E-01       2    2    1         0.5773754525E+00      0.2054414377E+01
          0                 2           2             7    3     1       0.3484500426E-02       2    2    1         0.1002914167E+00      0.5317903537E+00
          0                 3           2             7    3     1       0.1557797061E-02       7    3    1         0.4063283475E-01      0.2001095137E+00
          0                 4           2             7    3     1       0.6964419817E-03       7    3    1         0.1816555466E-01      0.8672062465E-01
          0                 5           2             7    3     1       0.3113588413E-03       7    3    1         0.8121258028E-02      0.3861229339E-01
          0                 6           2             7    3     1       0.1391999812E-03       7    3    1         0.3630780034E-02      0.1726610821E-01
          0                 7           1             7    3     1       0.6223271947E-04       7    3    1         0.1623223118E-02      0.7726250390E-02
          0                 8           1             7    3     1       0.2782275126E-04       7    3    1         0.7257016659E-03      0.3457892431E-02
          0                 9           1             7    3     1       0.1243893409E-04       7    3    1         0.3244439797E-03      0.1547697502E-02
          0                10           1             7    3     1       0.5561195913E-05       7    3    1         0.1450518080E-03      0.6927666539E-03

    ------------------------------------------------
       NWT REQUIRED           10 OUTER ITERATIONS 
       AND A TOTAL OF         16 INNER ITERATIONS.
    ------------------------------------------------

 NO OUTPUT CONTROL FOR STRESS PERIOD    4   TIME STEP   22
 
 SOLVING FOR HEAD 
                                                   Max.-Head-Change                         Max.-Flux-Residual
  Residual-Control   Outer-Iter.   Inner-Iter.     Column Row Layer    Maximum-Head-Change  Column Row Layer    Maximum-Flux-Residual          L2-NORM 
          0                 1           2             2    2     1       0.1102145323E-01       2    2    1         0.5745662743E+00      0.2050502093E+01
          0                 2           2             7    3     1       0.3465159241E-02       2    2    1         0.9981269139E-01      0.5309323244E+00
          0                 3           2             7    3     1       0.1549230723E-02       7    3    1         0.4040768495E-01      0.1997574627E+00
          0                 4           2             7    3     1       0.6926476420E-03       7    3    1         0.1806583312E-01      0.8656553120E-01
          0                 5           2             7    3     1       0.3096780780E-03       7    3    1         0.8077087206E-02      0.3854335899E-01
          0                 6           2             7    3     1       0.1384554106E-03       7    3    1         0.3611213626E-02      0.1723542329E-01
          0                 7           1             7    3     1       0.6190285551E-04       7    3    1         0.1614555172E-02      0.7712587344E-02
          0                 8           1             7    3     1       0.2767660313E-04       7    3    1         0.7218614973E-03      0.3451809438E-02
          0                 9           1             7    3     1       0.1237417834E-04       7    3    1         0.3227425556E-03      0.1544990284E-02
          0                10           1             7    3     1       0.5532501799E-05       7    3    1         0.1442979225E-03      0.6915594222E-03

    ------------------------------------------------
       NWT REQUIRED           10 OUTER ITERATIONS 
       AND A TOTAL OF         16 INNER ITERATIONS.
    ------------------------------------------------

 NO OUTPUT CONTROL FOR STRESS PERIOD    4   TIME STEP   23
 
 SOLVING FOR HEAD 
                                                   Max.-Head-Change                         Max.-Flux-Residual
  Residual-Control   Outer-Iter.   Inner-Iter.     Column Row Layer    Maximum-Head-Change  Column Row Layer    Maximum-Flux-Residual          L2-NORM 
          0                 1           2             2    2     1       0.1096931850E-01       2    2    1         0.5718153704E+00      0.2046390136E+01
          0                 2           2             7    3     1       0.3446234574E-02       2    2    1         0.9934385593E-01      0.5300843996E+00
          0                 3           2             7    3     1       0.1540847807E-02       7    3    1         0.4018737868E-01      0.1994109560E+00
          0                 4           2             7    3     1       0.6889340804E-03       7    3    1         0.1796824455E-01      0.8641176912E-01
          0                 5           2             7    3     1       0.3080328917E-03       7    3    1         0.8033855758E-02      0.3847486694E-01
          0                 6           2             7    3     1       0.1377265093E-03       7    3    1         0.3592060936E-02      0.1720491883E-01
          0                 7           1             7    3     1       0.6157989363E-04       7    3    1         0.1606069453E-02      0.7699002045E-02
          0                 8           1             7    3     1       0.2753349534E-04       7    3    1         0.7181015937E-03      0.3445757156E-02
          0                 9           1             7    3     1       0.1231076181E-04       7    3    1         0.3210764866E-03      0.1542293443E-02
          0                10           1             7    3     1       0.5504397446E-05       7    3    1         0.1435596133E-03      0.6903612422E-03

    ------------------------------------------------
       NWT REQUIRED           10 OUTER ITERATIONS 
       AND A TOTAL OF         16 INNER ITERATIONS.
    ------------------------------------------------

 NO OUTPUT CONTROL FOR STRESS PERIOD    4   TIME STEP   24
 
 SOLVING FOR HEAD 
                                                   Max.-Head-Change                         Max.-Flux-Residual
  Residual-Control   Outer-Iter.   Inner-Iter.     Column Row Layer    Maximum-Head-Change  Column Row Layer    Maximum-Flux-Residual          L2-NORM 
          0                 1           2             2    2     1       0.1091833722E-01       2    2    1         0.5691254750E+00      0.2042538695E+01
          0                 2           2             7    3     1       0.3427640007E-02       2    2    1         0.9888537868E-01      0.5291909345E+00
          0                 3           2             7    3     1       0.1532610548E-02       7    3    1         0.3997091244E-01      0.1990617183E+00
          0                 4           2             7    3     1       0.6852847914E-03       7    3    1         0.1787235038E-01      0.8625795487E-01
          0                 5           2             7    3     1       0.3064160675E-03       7    3    1         0.7991371990E-02      0.3840638996E-01
          0                 6           2             7    3     1       0.1370101245E-03       7    3    1         0.3573238192E-02      0.1717441746E-01
          0                 7           1             7    3     1       0.6126245519E-04       7    3    1         0.1597729338E-02      0.7685417193E-02
          0                 8           1             7    3     1       0.2739282614E-04       7    3    1         0.7144059542E-03      0.3439707642E-02
          0                 9           1             7    3     1       0.1224842088E-04       7    3    1         0.3194387719E-03      0.1539598201E-02
          0                10           1             7    3     1       0.5476768179E-05       7    3    1         0.1428338210E-03      0.6891589787E-03

    ------------------------------------------------
       NWT REQUIRED           10 OUTER ITERATIONS 
       AND A TOTAL OF         16 INNER ITERATIONS.
    ------------------------------------------------

 NO OUTPUT CONTROL FOR STRESS PERIOD    4   TIME STEP   25
 
 SOLVING FOR HEAD 
                                                   Max.-Head-Change                         Max.-Flux-Residual
  Residual-Control   Outer-Iter.   Inner-Iter.     Column Row Layer    Maximum-Head-Change  Column Row Layer    Maximum-Flux-Residual          L2-NORM 
          0                 1           2             2    2     1       0.1086843972E-01       2    2    1         0.5664929093E+00      0.2039122022E+01
          0                 2           2             7    3     1       0.3409437697E-02       2    2    1         0.9843663310E-01      0.5284115692E+00
          0                 3           2             7    3     1       0.1524546132E-02       7    3    1         0.3975900815E-01      0.1987222570E+00
          0                 4           2             7    3     1       0.6817116683E-03       7    3    1         0.1777846641E-01      0.8610553842E-01
          0                 5           2             7    3     1       0.3048328081E-03       7    3    1         0.7949774041E-02      0.3833837527E-01
          0                 6           2             7    3     1       0.1363085319E-03       7    3    1         0.3554805819E-02      0.1714411601E-01
          0                 7           1             7    3     1       0.6095153678E-04       7    3    1         0.1589561263E-02      0.7671920149E-02
          0                 8           1             7    3     1       0.2725502933E-04       7    3    1         0.7107861281E-03      0.3433695014E-02
          0                 9           1             7    3     1       0.1218734702E-04       7    3    1         0.3178344834E-03      0.1536920391E-02
          0                10           1             7    3     1       0.5449697160E-05       7    3    1         0.1421227561E-03      0.6879660758E-03

    ------------------------------------------------
       NWT REQUIRED           10 OUTER ITERATIONS 
       AND A TOTAL OF         16 INNER ITERATIONS.
    ------------------------------------------------

 NO OUTPUT CONTROL FOR STRESS PERIOD    4   TIME STEP   26
 
 SOLVING FOR HEAD 
                                                   Max.-Head-Change                         Max.-Flux-Residual
  Residual-Control   Outer-Iter.   Inner-Iter.     Column Row Layer    Maximum-Head-Change  Column Row Layer    Maximum-Flux-Residual          L2-NORM 
          0                 1           2             2    2     1       0.1081955788E-01       2    2    1         0.5639140834E+00      0.2036157133E+01
          0                 2           2             7    3     1       0.3391616287E-02       2    2    1         0.9799700623E-01      0.5276550720E+00
          0                 3           2             7    3     1       0.1516649993E-02       7    3    1         0.3955153582E-01      0.1983859029E+00
          0                 4           2             7    3     1       0.6782128906E-03       7    3    1         0.1768654045E-01      0.8595408181E-01
          0                 5           2             7    3     1       0.3032823968E-03       7    3    1         0.7909041164E-02      0.3827077120E-01
          0                 6           2             7    3     1       0.1356214529E-03       7    3    1         0.3536755658E-02      0.1711399377E-01
          0                 7           1             7    3     1       0.6064703121E-04       7    3    1         0.1581562071E-02      0.7658502553E-02
          0                 8           1             7    3     1       0.2712006704E-04       7    3    1         0.7072409327E-03      0.3427718571E-02
          0                 9           1             7    3     1       0.1212752496E-04       7    3    1         0.3162631656E-03      0.1534258054E-02
          0                10           1             8    3     1       0.5428524010E-05       7    3    1         0.1414262679E-03      0.6867845816E-03

    ------------------------------------------------
       NWT REQUIRED           10 OUTER ITERATIONS 
       AND A TOTAL OF         16 INNER ITERATIONS.
    ------------------------------------------------

 NO OUTPUT CONTROL FOR STRESS PERIOD    4   TIME STEP   27
 
 SOLVING FOR HEAD 
                                                   Max.-Head-Change                         Max.-Flux-Residual
  Residual-Control   Outer-Iter.   Inner-Iter.     Column Row Layer    Maximum-Head-Change  Column Row Layer    Maximum-Flux-Residual          L2-NORM 
          0                 1           2             2    2     1       0.1077174600E-01       2    2    1         0.5613918380E+00      0.2033176632E+01
          0                 2           2             7    3     1       0.3374162819E-02       2    2    1         0.9756698884E-01      0.5268364367E+00
          0                 3           2             7    3     1       0.1508915990E-02       7    3    1         0.3934834268E-01      0.1980424402E+00
          0                 4           2             7    3     1       0.6747855635E-03       7    3    1         0.1759650015E-01      0.8580253363E-01
          0                 5           2             7    3     1       0.3017634741E-03       7    3    1         0.7869139274E-02      0.3820337762E-01
          0                 6           2             7    3     1       0.1349482519E-03       7    3    1         0.3519071726E-02      0.1708398559E-01
          0                 7           1             7    3     1       0.6034864248E-04       7    3    1         0.1573724295E-02      0.7645135878E-02
          0                 8           1             7    3     1       0.2698780106E-04       7    3    1         0.7037668863E-03      0.3421763900E-02
          0                 9           1             8    3     1       0.1207909370E-04       7    3    1         0.3147232109E-03      0.1531605407E-02
          0                10           1             8    3     1       0.5422620764E-05       8    3    1         0.1409623132E-03      0.6855982469E-03

    ------------------------------------------------
       NWT REQUIRED           10 OUTER ITERATIONS 
       AND A TOTAL OF         16 INNER ITERATIONS.
    ------------------------------------------------

 NO OUTPUT CONTROL FOR STRESS PERIOD    4   TIME STEP   28
 
 SOLVING FOR HEAD 
                                                   Max.-Head-Change                         Max.-Flux-Residual
  Residual-Control   Outer-Iter.   Inner-Iter.     Column Row Layer    Maximum-Head-Change  Column Row Layer    Maximum-Flux-Residual          L2-NORM 
          0                 1           2             2    2     1       0.1072493708E-01       2    2    1         0.5589226277E+00      0.2030087382E+01
          0                 2           2             7    3     1       0.3356991011E-02       2    2    1         0.9714597941E-01      0.5260503310E+00
          0                 3           2             7    3     1       0.1501305951E-02       7    3    1         0.3914842452E-01      0.1977059814E+00
          0                 4           2             7    3     1       0.6714127982E-03       7    3    1         0.1750790126E-01      0.8565223814E-01
          0                 5           2             7    3     1       0.3002685677E-03       7    3    1         0.7829871809E-02      0.3813635908E-01
          0                 6           2             7    3     1       0.1342856219E-03       7    3    1         0.3501667031E-02      0.1705412342E-01
          0                 7           1             7    3     1       0.6005490707E-04       7    3    1         0.1566009428E-02      0.7631833790E-02
          0                 8           1             8    3     1       0.2687661445E-04       7    3    1         0.7003469385E-03      0.3415837976E-02
          0                 9           1             8    3     1       0.1206565949E-04       8    3    1         0.3136487155E-03      0.1528965509E-02
          0                10           1             8    3     1       0.5416464531E-05       8    3    1         0.1408049346E-03      0.6844223202E-03

    ------------------------------------------------
       NWT REQUIRED           10 OUTER ITERATIONS 
       AND A TOTAL OF         16 INNER ITERATIONS.
    ------------------------------------------------

 NO OUTPUT CONTROL FOR STRESS PERIOD    4   TIME STEP   29
 
 SOLVING FOR HEAD 
                                                   Max.-Head-Change                         Max.-Flux-Residual
  Residual-Control   Outer-Iter.   Inner-Iter.     Column Row Layer    Maximum-Head-Change  Column Row Layer    Maximum-Flux-Residual          L2-NORM 
          0                 1           2             1    1     1       0.1020573927E-01       1    1    1         0.5298775266E+00      0.1995797275E+01
          0                 2           2             7    3     1       0.3340240617E-02       1    1    1         0.9264193569E-01      0.5217325644E+00
          0                 3           2             7    3     1       0.1493882170E-02       7    3    1         0.3895341025E-01      0.1970519216E+00
          0                 4           2             7    3     1       0.6681223470E-03       7    3    1         0.1742146975E-01      0.8546093068E-01
          0                 5           2             7    3     1       0.2988100350E-03       7    3    1         0.7791562180E-02      0.3805806169E-01
          0                 6           2             7    3     1       0.1336390648E-03       7    3    1         0.3484685609E-02      0.1701973483E-01
          0                 7           1             8    3     1       0.5980164600E-04       7    3    1         0.1558481581E-02      0.7616557934E-02
          0                 8           1             8    3     1       0.2684672718E-04       8    3    1         0.6978826236E-03      0.3409040068E-02
          0                 9           1             8    3     1       0.1205196666E-04       8    3    1         0.3132985977E-03      0.1525939282E-02
          0                10           1             8    3     1       0.5410196248E-05       8    3    1         0.1406445523E-03      0.6830750537E-03

    ------------------------------------------------
       NWT REQUIRED           10 OUTER ITERATIONS 
       AND A TOTAL OF         16 INNER ITERATIONS.
    ------------------------------------------------

 NO OUTPUT CONTROL FOR STRESS PERIOD    4   TIME STEP   30



 STREAM LISTING     PERIOD      4   STEP       30

 LAYER ROW COL. STREAM  RCH.  FLOW INTO     FLOW TO   FLOW OUT OF   OVRLND.     DIRECT     STREAM       STREAM     STREAM     STREAM   STREAMBED  STREAMBED
                SEG.NO.  NO.  STRM. RCH.    AQUIFER    STRM. RCH.    RUNOFF     PRECIP       ET          HEAD       DEPTH      WIDTH   CONDCTNC.   GRADIENT

   1    1    1     1     1    7.0288E+01  4.0691E-01   6.9881E+01  0.000E+00  0.000E+00  0.000E+00  1.09469E+03  1.646E+00  1.946E+01  8.759E-02  1.549E+00
   1    2    2     1     2    6.9881E+01  6.3029E-01   6.9250E+01  0.000E+00  0.000E+00  0.000E+00  1.08970E+03  1.640E+00  1.941E+01  1.358E-01  1.547E+00
   1    3    3     1     3    6.9250E+01  5.3766E-01   6.8713E+01  0.000E+00  0.000E+00  0.000E+00  1.08405E+03  1.633E+00  1.934E+01  1.160E-01  1.544E+00
   1    3    4     1     4    6.8713E+01  4.9521E-01   6.8218E+01  0.000E+00  0.000E+00  0.000E+00  1.07904E+03  1.627E+00  1.928E+01  1.070E-01  1.542E+00
   1    4    5     2     1    6.6218E+01  0.0000E+00   6.6218E+01  0.000E+00  0.000E+00  0.000E+00  1.07410E+03  2.166E+00  1.200E+01  0.000E+00  1.722E+00
   1    5    6     2     2    6.6218E+01  0.0000E+00   6.6218E+01  0.000E+00  0.000E+00  0.000E+00  1.06868E+03  2.166E+00  1.200E+01  0.000E+00  1.722E+00
   1    6    6     2     3    6.6218E+01  0.0000E+00   6.6218E+01  0.000E+00  0.000E+00  0.000E+00  1.06396E+03  2.166E+00  1.200E+01  0.000E+00  1.722E+00
   1    7    6     2     4    6.6218E+01  0.0000E+00   6.6218E+01  0.000E+00  0.000E+00  0.000E+00  1.05924E+03  2.166E+00  1.200E+01  0.000E+00  1.722E+00
   1    8    6     2     5    6.6218E+01  0.0000E+00   6.6218E+01  0.000E+00  0.000E+00  0.000E+00  1.05452E+03  2.166E+00  1.200E+01  0.000E+00  1.722E+00
   1    3    5     3     1    2.0000E+00  2.8252E-01   1.7175E+00  0.000E+00  0.000E+00  0.000E+00  1.07555E+03  1.909E+00  9.636E+00  7.227E-02  1.955E+00
   1    3    6     3     2    1.7175E+00  2.4905E-01   1.4684E+00  0.000E+00  0.000E+00  0.000E+00  1.07264E+03  1.727E+00  8.909E+00  6.682E-02  1.864E+00
   1    3    7     3     3    1.4684E+00  1.9718E-01   1.2712E+00  0.000E+00  0.000E+00  0.000E+00  1.06987E+03  1.555E+00  8.218E+00  5.547E-02  1.777E+00
   1    4    8     3     4    1.2712E+00  2.2567E-01   1.0456E+00  0.000E+00  0.000E+00  0.000E+00  1.06682E+03  1.364E+00  7.455E+00  6.709E-02  1.682E+00
   1    5    8     3     5    1.0456E+00  1.5790E-01   8.8768E-01  0.000E+00  0.000E+00  0.000E+00  1.06362E+03  1.164E+00  6.655E+00  4.991E-02  1.582E+00
   1    6    8     3     6    8.8768E-01  5.5980E-02   8.3170E-01  0.000E+00  0.000E+00  0.000E+00  1.06158E+03  1.036E+00  6.145E+00  1.844E-02  1.518E+00
   1    5   10     4     1    1.0000E+01  0.0000E+00   1.0000E+01  0.000E+00  0.000E+00  0.000E+00  1.07837E+03  6.385E-01  1.000E+01  0.000E+00  1.213E+00
   1    5    9     4     2    1.0000E+01  0.0000E+00   1.0000E+01  0.000E+00  0.000E+00  0.000E+00  1.07155E+03  6.385E-01  1.000E+01  0.000E+00  1.213E+00
   1    6    8     4     3    1.0000E+01  0.0000E+00   1.0000E+01  0.000E+00  0.000E+00  0.000E+00  1.06382E+03  6.385E-01  1.000E+01  0.000E+00  1.213E+00
   1    6    8     5     1    1.0832E+01  2.3262E-01   1.0599E+01  0.000E+00  0.000E+00  0.000E+00  1.05869E+03  6.881E-01  1.577E+01  6.307E-02  1.229E+00
   1    7    7     5     2    1.0599E+01  2.8607E-01   1.0313E+01  0.000E+00  0.000E+00  0.000E+00  1.05418E+03  6.822E-01  1.554E+01  7.769E-02  1.227E+00
   1    8    7     5     3    1.0313E+01  1.9716E-01   1.0116E+01  0.000E+00  0.000E+00  0.000E+00  1.04993E+03  6.766E-01  1.532E+01  5.363E-02  1.226E+00
   1    8    6     5     4    1.0116E+01  1.3929E-01   9.9766E+00  0.000E+00  0.000E+00  0.000E+00  1.04692E+03  6.727E-01  1.517E+01  3.792E-02  1.224E+00
   1    9    6     6     1    7.6194E+01  0.0000E+00   7.6194E+01  0.000E+00  0.000E+00  0.000E+00  1.04511E+03  2.383E+00  1.200E+01  0.000E+00  1.794E+00
   1   10    7     6     2    7.6194E+01  0.0000E+00   7.6194E+01  0.000E+00  0.000E+00  0.000E+00  1.04056E+03  2.383E+00  1.200E+01  0.000E+00  1.794E+00
   1   11    7     6     3    7.6194E+01  0.0000E+00   7.6194E+01  0.000E+00  0.000E+00  0.000E+00  1.03602E+03  2.383E+00  1.200E+01  0.000E+00  1.794E+00
   1   12    7     6     4    7.6194E+01  0.0000E+00   7.6194E+01  0.000E+00  0.000E+00  0.000E+00  1.03147E+03  2.383E+00  1.200E+01  0.000E+00  1.794E+00
   1   13    7     6     5    7.6194E+01  0.0000E+00   7.6194E+01  0.000E+00  0.000E+00  0.000E+00  1.02829E+03  2.383E+00  1.200E+01  0.000E+00  6.281E-01
   1   14    9     7     1    1.5000E+02  1.3266E+00   1.4867E+02  0.000E+00  0.000E+00  0.000E+00  1.03987E+03  2.288E+00  5.529E+01  5.593E-01  7.906E-01
   1   13    8     7     2    1.4867E+02  2.0080E+00   1.4667E+02  0.000E+00  0.000E+00  0.000E+00  1.03478E+03  2.279E+00  5.525E+01  6.148E-01  1.089E+00
   1   13    7     7     3    1.4667E+02  1.8315E+00   1.4483E+02  0.000E+00  0.000E+00  0.000E+00  1.02969E+03  2.269E+00  5.521E+01  5.584E-01  1.093E+00
   1   13    6     8     1    2.2103E+02  1.4587E+00   2.1957E+02  0.000E+00  0.000E+00  0.000E+00  1.02513E+03  3.254E+00  4.718E+01  4.807E-01  1.011E+00
   1   13    5     8     2    2.1957E+02  5.8115E-01   2.1899E+02  0.000E+00  0.000E+00  0.000E+00  1.01887E+03  3.248E+00  4.709E+01  4.799E-01  4.037E-01
   1   13    4     8     3    2.1899E+02 -1.4466E+00   2.2043E+02  0.000E+00  0.000E+00  0.000E+00  1.01263E+03  3.250E+00  4.713E+01  4.803E+00 -1.004E-01
   1   13    3     8     4    2.2043E+02 -3.2890E+00   2.2372E+02  0.000E+00  0.000E+00  0.000E+00  1.00639E+03  3.263E+00  4.732E+01  4.822E+00 -2.274E-01
   1   13    2     8     5    2.2372E+02 -2.6221E+00   2.2635E+02  0.000E+00  0.000E+00  0.000E+00  1.00015E+03  3.280E+00  4.755E+01  4.846E+00 -1.804E-01
   1   13    1     8     6    2.2635E+02 -1.9829E+00   2.2833E+02  0.000E+00  0.000E+00  0.000E+00  9.95167E+02  3.292E+00  4.774E+01  2.919E+00 -2.265E-01
   1    6    8     9     1    0.0000E+00  0.0000E+00   0.0000E+00  0.000E+00  0.000E+00  0.000E+00  1.07850E+03  0.000E+00  4.000E+00  0.000E+00  1.000E+00





UNSATURATED ZONE PACKAGE VOLUMETRIC BUDGET FOR  TIME STEP    30 STRESS PERIOD    4
  ------------------------------------------------------------------------------



     CUMULATIVE VOLUMES      L**3       RATES FOR THIS TIME STEP      L**3/T
     ------------------                 ------------------------

           IN:                                      IN:
           ---                                      ---
        INFILTRATION =     8908920.0000          INFILTRATION =           0.8475

          OUT:                                     OUT:
          ----                                     ----
              UZF ET =     2286659.4302                UZF ET =           0.2900
        UZF RECHARGE =   228050036.9626          UZF RECHARGE =          27.5394

            IN - OUT =  -221427776.3929              IN - OUT =         -26.9819

          STORAGE:                                 STORAGE:
          --------                                 --------
      STORAGE CHANGE =  -221426546.9494        STORAGE CHANGE =         -26.9819

 PERCENT DISCREPANCY IS DIFFERENCE BETWEEN IN-OUT MINUS CHANGE IN STORAGE
 DIVIDED BY THE AVERAGE OF IN AND OUT TIMES 100

 PERCENT DISCREPANCY =          -0.00     PERCENT DISCREPANCY =           0.00






1
  VOLUMETRIC BUDGET FOR ENTIRE MODEL AT END OF TIME STEP   30, STRESS PERIOD   4
  ------------------------------------------------------------------------------

     CUMULATIVE VOLUMES      L**3       RATES FOR THIS TIME STEP      L**3/T
     ------------------                 ------------------------

           IN:                                      IN:
           ---                                      ---
             STORAGE =       20951.3535               STORAGE =           0.2392
       CONSTANT HEAD =           0.0000         CONSTANT HEAD =           0.0000
               WELLS =           0.0000                 WELLS =           0.0000
     HEAD DEP BOUNDS =     3050809.2500       HEAD DEP BOUNDS =           0.2851
      STREAM LEAKAGE =   109251944.0000        STREAM LEAKAGE =          11.2995
        UZF RECHARGE =   228050000.0000          UZF RECHARGE =          27.5394
               GW ET =           0.0000                 GW ET =           0.0000
     SURFACE LEAKAGE =           0.0000       SURFACE LEAKAGE =           0.0000

            TOTAL IN =   340373696.0000              TOTAL IN =          39.3632

          OUT:                                     OUT:
          ----                                     ----
             STORAGE =   247584720.0000               STORAGE =          29.7222
       CONSTANT HEAD =           0.0000         CONSTANT HEAD =           0.0000
               WELLS =           0.0000                 WELLS =           0.0000
     HEAD DEP BOUNDS =     3041738.2500       HEAD DEP BOUNDS =           0.2982
      STREAM LEAKAGE =    86386144.0000        STREAM LEAKAGE =           9.3405
        UZF RECHARGE =           0.0000          UZF RECHARGE =           0.0000
               GW ET =     3341160.0000                 GW ET =       3.8860E-07
     SURFACE LEAKAGE =           0.0000       SURFACE LEAKAGE =           0.0000

           TOTAL OUT =   340353760.0000             TOTAL OUT =          39.3609

            IN - OUT =       19936.0000              IN - OUT =       2.3003E-03

 PERCENT DISCREPANCY =           0.01     PERCENT DISCREPANCY =           0.01






         TIME SUMMARY AT END OF TIME STEP   30 IN STRESS PERIOD    4
                    SECONDS     MINUTES      HOURS       DAYS        YEARS
                    -----------------------------------------------------------
   TIME STEP LENGTH  87600.      1460.0      24.333      1.0139     2.77588E-03
 STRESS PERIOD TIME 2.62800E+06  43800.      730.00      30.417     8.32763E-02
         TOTAL TIME 1.05120E+07 1.75200E+05  2920.0      121.67     0.33311    
1
1
                            STRESS PERIOD NO.    5, LENGTH =   2628000.    
                            -----------------------------------------------

                              NUMBER OF TIME STEPS =    30

                               MULTIPLIER FOR DELT =     1.000

                            INITIAL TIME STEP SIZE =   87600.00    

 WELL NO.  LAYER   ROW   COL   STRESS RATE         
 --------------------------------------------------
      1      1      6      4       0.000    
      2      1      6      7       0.000    
      3      1      7      4       0.000    
      4      1      7      5       0.000    
      5      1      8      4       0.000    
      6      1      8      5       0.000    
      7      1      9      4       0.000    
      8      1      9      5       0.000    
      9      1     10      4       0.000    
     10      1     10      5       0.000    

     10 WELLS

 REUSING NON-PARAMETER GHB CELLS FROM LAST STRESS PERIOD

      2 GHB CELLS

 REUSING STREAM SEGMENT DATA FROM LAST STRESS PERIOD



            AREAL INFILTRATION RATE
 READING ON UNIT   19 WITH FORMAT: (10F4.0)            

            1           2           3           4           5           6           7           8           9          10
 ........................................................................................................................
   1   1.0000E-10  2.0000E-10   0.000       0.000       0.000       0.000       0.000       0.000       0.000       0.000    
   2   2.0000E-10  1.0000E-10  2.0000E-10   0.000       0.000      8.0000E-10  8.0000E-10  5.0000E-10   0.000       0.000    
   3    0.000      5.0000E-10  1.0000E-10  1.0000E-10  8.0000E-10  8.0000E-10  5.0000E-10  5.0000E-10   0.000       0.000    
   4   8.0000E-10  5.0000E-10  1.0000E-10  1.0000E-10  1.0000E-10  1.0000E-10  1.0000E-10  1.0000E-10  2.0000E-10   0.000    
   5   8.0000E-10  5.0000E-10  1.0000E-10  1.0000E-10  1.0000E-10  1.0000E-10  1.0000E-10  1.0000E-10  1.0000E-10  1.0000E-10
   6   8.0000E-10  5.0000E-10  5.0000E-10  2.0000E-10  2.0000E-10  1.0000E-10  1.0000E-10  1.0000E-10  1.0000E-10  5.0000E-10
   7   8.0000E-10  5.0000E-10  5.0000E-10  2.0000E-10  2.0000E-10  1.0000E-10  1.0000E-10  2.0000E-10  2.0000E-10   0.000    
   8    0.000      5.0000E-10  5.0000E-10  2.0000E-10  2.0000E-10  1.0000E-10  1.0000E-10  2.0000E-10  5.0000E-10   0.000    
   9    0.000      5.0000E-10  5.0000E-10  2.0000E-10  2.0000E-10  1.0000E-10  1.0000E-10  2.0000E-10  5.0000E-10   0.000    
  10    0.000      5.0000E-10  5.0000E-10  2.0000E-10  2.0000E-10  1.0000E-10  1.0000E-10  2.0000E-10  5.0000E-10  8.0000E-10
  11    0.000      1.0000E-10  1.0000E-10  1.0000E-10  1.0000E-10  1.0000E-10  1.0000E-10  2.0000E-10  5.0000E-10   0.000    
  12   1.0000E-10  1.0000E-10  1.0000E-10  1.0000E-10  1.0000E-10  1.0000E-10  1.0000E-10  1.0000E-10  2.0000E-10   0.000    
  13   1.0000E-10  1.0000E-10  2.0000E-10  2.0000E-10  2.0000E-10  2.0000E-10  2.0000E-10  1.0000E-10  1.0000E-10   0.000    
  14    0.000      2.0000E-10  5.0000E-10  5.0000E-10  5.0000E-10  5.0000E-10  5.0000E-10  2.0000E-10  1.0000E-10   0.000    
  15    0.000       0.000      8.0000E-10  8.0000E-10  8.0000E-10  8.0000E-10   0.000       0.000       0.000       0.000    

                  ET RATE =  5.000000E-09

 USING ET EXTINCTION DEPTH FROM PREVIOUS STRESS PERIOD. CURRENT PERIOD IS:       5

 USING EXTINCTION WATER CONTENT FROM PREVIOUS STRESS PERIOD. CURRENT PERIOD IS:       5
 
 SOLVING FOR HEAD 
                                                   Max.-Head-Change                         Max.-Flux-Residual
  Residual-Control   Outer-Iter.   Inner-Iter.     Column Row Layer    Maximum-Head-Change  Column Row Layer    Maximum-Flux-Residual          L2-NORM 
          0                 1           2             4   13     1      -0.1782687887E-01       4   13    1        -0.1028595674E+01      0.2486623579E+01
          0                 2           2             7    3     1       0.3323749208E-02       4   13    1         0.9716402068E-01      0.5181456533E+00
          0                 3           2             7    3     1       0.1486571983E-02       7    3    1         0.3876140605E-01      0.1952793115E+00
          0                 4           2             7    3     1       0.6648816456E-03       7    3    1         0.1733635816E-01      0.8506878843E-01
          0                 5           2             7    3     1       0.2973732570E-03       7    3    1         0.7753830454E-02      0.3791992781E-01
          0                 6           2             8    3     1       0.1330575875E-03       7    3    1         0.3467956811E-02      0.1696097923E-01
          0                 7           1             8    3     1       0.5973372572E-04       8    3    1         0.1552777387E-02      0.7590659428E-02
          0                 8           1             8    3     1       0.2681562962E-04       8    3    1         0.6970870715E-03      0.3397558243E-02
          0                 9           1             8    3     1       0.1203774084E-04       8    3    1         0.3129344138E-03      0.1520843271E-02
          0                10           1             8    3     1       0.5403693611E-05       8    3    1         0.1404779734E-03      0.6808122749E-03

    ------------------------------------------------
       NWT REQUIRED           10 OUTER ITERATIONS 
       AND A TOTAL OF         16 INNER ITERATIONS.
    ------------------------------------------------

 NO OUTPUT CONTROL FOR STRESS PERIOD    5   TIME STEP    1
 
 SOLVING FOR HEAD 
                                                   Max.-Head-Change                         Max.-Flux-Residual
  Residual-Control   Outer-Iter.   Inner-Iter.     Column Row Layer    Maximum-Head-Change  Column Row Layer    Maximum-Flux-Residual          L2-NORM 
          0                 1           2             2   13     1      -0.1621040068E-01       4   13    1        -0.9305376003E+00      0.2418361487E+01
          0                 2           2             7    3     1       0.3307581011E-02       4   13    1         0.9229095004E-01      0.5237190726E+00
          0                 3           2             7    3     1       0.1479404183E-02       7    3    1         0.3857316041E-01      0.1948297587E+00
          0                 4           2             7    3     1       0.6617037030E-03       7    3    1         0.1725290249E-01      0.8481173503E-01
          0                 5           2             8    3     1       0.2960427762E-03       7    3    1         0.7716828669E-02      0.3780514822E-01
          0                 6           2             8    3     1       0.1329034532E-03       8    3    1         0.3454811379E-02      0.1690998918E-01
          0                 7           1             8    3     1       0.5966320616E-04       8    3    1         0.1550972268E-02      0.7568007168E-02
          0                 8           1             8    3     1       0.2678339119E-04       8    3    1         0.6962613152E-03      0.3387492879E-02
          0                 9           1             8    3     1       0.1202301381E-04       8    3    1         0.3125569652E-03      0.1516370046E-02
          0                10           1             8    3     1       0.5396970376E-05       8    3    1         0.1403055698E-03      0.6788240443E-03

    ------------------------------------------------
       NWT REQUIRED           10 OUTER ITERATIONS 
       AND A TOTAL OF         16 INNER ITERATIONS.
    ------------------------------------------------

 NO OUTPUT CONTROL FOR STRESS PERIOD    5   TIME STEP    2
 
 SOLVING FOR HEAD 
                                                   Max.-Head-Change                         Max.-Flux-Residual
  Residual-Control   Outer-Iter.   Inner-Iter.     Column Row Layer    Maximum-Head-Change  Column Row Layer    Maximum-Flux-Residual          L2-NORM 
          0                 1           2             2   13     1      -0.1496080273E-01       2   13    1        -0.8443510573E+00      0.2330037975E+01
          0                 2           2             7    3     1       0.3291725799E-02       7    3    1         0.8582412319E-01      0.5187722394E+00
          0                 3           2             7    3     1       0.1472374425E-02       7    3    1         0.3838855538E-01      0.1941837693E+00
          0                 4           2             8    3     1       0.6586698162E-03       7    3    1         0.1717105255E-01      0.8455830319E-01
          0                 5           2             8    3     1       0.2957000187E-03       8    3    1         0.7686664691E-02      0.3769305164E-01
          0                 6           2             8    3     1       0.1327466496E-03       8    3    1         0.3450797278E-02      0.1686019944E-01
          0                 7           1             8    3     1       0.5959152859E-04       8    3    1         0.1549136185E-02      0.7545884725E-02
          0                 8           1             8    3     1       0.2675065065E-04       8    3    1         0.6954221312E-03      0.3377661551E-02
          0                 9           1             8    3     1       0.1200806905E-04       8    3    1         0.3121736957E-03      0.1512000365E-02
          0                10           1             8    3     1       0.5390153975E-05       8    3    1         0.1401306501E-03      0.6768814311E-03

    ------------------------------------------------
       NWT REQUIRED           10 OUTER ITERATIONS 
       AND A TOTAL OF         16 INNER ITERATIONS.
    ------------------------------------------------

 NO OUTPUT CONTROL FOR STRESS PERIOD    5   TIME STEP    3
 
 SOLVING FOR HEAD 
                                                   Max.-Head-Change                         Max.-Flux-Residual
  Residual-Control   Outer-Iter.   Inner-Iter.     Column Row Layer    Maximum-Head-Change  Column Row Layer    Maximum-Flux-Residual          L2-NORM 
          0                 1           2             2   13     1      -0.1380771701E-01       2   13    1        -0.7792170836E+00      0.2253227610E+01
          0                 2           2             7    3     1       0.3276172858E-02       7    3    1         0.8541570984E-01      0.5144479925E+00
          0                 3           2             7    3     1       0.1465477832E-02       7    3    1         0.3820746559E-01      0.1935694062E+00
          0                 4           2             8    3     1       0.6578925274E-03       8    3    1         0.1710172896E-01      0.8431315057E-01
          0                 5           2             8    3     1       0.2953446681E-03       8    3    1         0.7677562884E-02      0.3758450527E-01
          0                 6           2             8    3     1       0.1325843176E-03       8    3    1         0.3446636827E-02      0.1681197648E-01
          0                 7           1             8    3     1       0.5951742381E-04       8    3    1         0.1547235841E-02      0.7524455227E-02
          0                 8           1             8    3     1       0.2671684439E-04       8    3    1         0.6945547333E-03      0.3368137486E-02
          0                 9           1             8    3     1       0.1199265683E-04       8    3    1         0.3117780438E-03      0.1507767276E-02
          0                10           1             8    3     1       0.5383131357E-05       8    3    1         0.1399502902E-03      0.6749995022E-03

    ------------------------------------------------
       NWT REQUIRED           10 OUTER ITERATIONS 
       AND A TOTAL OF         16 INNER ITERATIONS.
    ------------------------------------------------

 NO OUTPUT CONTROL FOR STRESS PERIOD    5   TIME STEP    4
 
 SOLVING FOR HEAD 
                                                   Max.-Head-Change                         Max.-Flux-Residual
  Residual-Control   Outer-Iter.   Inner-Iter.     Column Row Layer    Maximum-Head-Change  Column Row Layer    Maximum-Flux-Residual          L2-NORM 
          0                 1           2             2   13     1      -0.1274348545E-01       2   13    1        -0.7191091927E+00      0.2186619808E+01
          0                 2           2             7    3     1       0.3260911330E-02       7    3    1         0.8501499678E-01      0.5106483705E+00
          0                 3           2             8    3     1       0.1463700673E-02       8    3    1         0.3804835917E-01      0.1929815588E+00
          0                 4           2             8    3     1       0.6570952952E-03       8    3    1         0.1708130321E-01      0.8407525404E-01
          0                 5           2             8    3     1       0.2949805926E-03       8    3    1         0.7668229425E-02      0.3747911498E-01
          0                 6           2             8    3     1       0.1324181683E-03       8    3    1         0.3442375025E-02      0.1676514712E-01
          0                 7           1             8    3     1       0.5944164955E-04       8    3    1         0.1545291168E-02      0.7503652471E-02
          0                 8           1             8    3     1       0.2668230856E-04       8    3    1         0.6936679492E-03      0.3358911174E-02
          0                 9           1             8    3     1       0.1197692522E-04       8    3    1         0.3113739088E-03      0.1503654645E-02
          0                10           1             8    3     1       0.5375969427E-05       8    3    1         0.1397662221E-03      0.6731707612E-03

    ------------------------------------------------
       NWT REQUIRED           10 OUTER ITERATIONS 
       AND A TOTAL OF         16 INNER ITERATIONS.
    ------------------------------------------------

 OUTPUT CONTROL FOR STRESS PERIOD    5   TIME STEP    5
    PRINT BUDGET
    SAVE BUDGET
 UBUDSV SAVING "         STORAGE" ON UNIT102 AT TIME STEP     5, STRESS PERIOD    5
 UBUDSV SAVING "   CONSTANT HEAD" ON UNIT102 AT TIME STEP     5, STRESS PERIOD    5
 UBUDSV SAVING "FLOW RIGHT FACE " ON UNIT102 AT TIME STEP     5, STRESS PERIOD    5
 UBUDSV SAVING "FLOW FRONT FACE " ON UNIT102 AT TIME STEP     5, STRESS PERIOD    5

  HEAD DEP BOUNDS   PERIOD    5   STEP     5
 BOUNDARY      1   LAYER   1   ROW    13   COL     1   RATE   -0.296780    
 BOUNDARY      2   LAYER   1   ROW    14   COL     9   RATE    0.284766    



 STREAM LISTING     PERIOD      5   STEP        5

 LAYER ROW COL. STREAM  RCH.  FLOW INTO     FLOW TO   FLOW OUT OF   OVRLND.     DIRECT     STREAM       STREAM     STREAM     STREAM   STREAMBED  STREAMBED
                SEG.NO.  NO.  STRM. RCH.    AQUIFER    STRM. RCH.    RUNOFF     PRECIP       ET          HEAD       DEPTH      WIDTH   CONDCTNC.   GRADIENT

   1    1    1     1     1    2.8000E+01  2.5860E-01   2.7741E+01  0.000E+00  0.000E+00  0.000E+00  1.09427E+03  1.221E+00  1.361E+01  6.126E-02  1.407E+00
   1    2    2     1     2    2.7741E+01  4.0002E-01   2.7341E+01  0.000E+00  0.000E+00  0.000E+00  1.08928E+03  1.217E+00  1.355E+01  9.487E-02  1.406E+00
   1    3    3     1     3    2.7341E+01  3.4070E-01   2.7001E+01  0.000E+00  0.000E+00  0.000E+00  1.08363E+03  1.212E+00  1.348E+01  8.090E-02  1.404E+00
   1    3    4     1     4    2.7001E+01  3.1335E-01   2.6687E+01  0.000E+00  0.000E+00  0.000E+00  1.07861E+03  1.207E+00  1.342E+01  7.448E-02  1.402E+00
   1    4    5     2     1    2.4687E+01  0.0000E+00   2.4687E+01  0.000E+00  0.000E+00  0.000E+00  1.07313E+03  1.198E+00  1.200E+01  0.000E+00  1.399E+00
   1    5    6     2     2    2.4687E+01  0.0000E+00   2.4687E+01  0.000E+00  0.000E+00  0.000E+00  1.06771E+03  1.198E+00  1.200E+01  0.000E+00  1.399E+00
   1    6    6     2     3    2.4687E+01  0.0000E+00   2.4687E+01  0.000E+00  0.000E+00  0.000E+00  1.06299E+03  1.198E+00  1.200E+01  0.000E+00  1.399E+00
   1    7    6     2     4    2.4687E+01  0.0000E+00   2.4687E+01  0.000E+00  0.000E+00  0.000E+00  1.05827E+03  1.198E+00  1.200E+01  0.000E+00  1.399E+00
   1    8    6     2     5    2.4687E+01  0.0000E+00   2.4687E+01  0.000E+00  0.000E+00  0.000E+00  1.05356E+03  1.198E+00  1.200E+01  0.000E+00  1.399E+00
   1    3    5     3     1    2.0000E+00  2.8252E-01   1.7175E+00  0.000E+00  0.000E+00  0.000E+00  1.07555E+03  1.909E+00  9.636E+00  7.227E-02  1.955E+00
   1    3    6     3     2    1.7175E+00  2.4905E-01   1.4684E+00  0.000E+00  0.000E+00  0.000E+00  1.07264E+03  1.727E+00  8.909E+00  6.682E-02  1.864E+00
   1    3    7     3     3    1.4684E+00  1.9718E-01   1.2712E+00  0.000E+00  0.000E+00  0.000E+00  1.06987E+03  1.555E+00  8.218E+00  5.547E-02  1.777E+00
   1    4    8     3     4    1.2712E+00  2.2567E-01   1.0456E+00  0.000E+00  0.000E+00  0.000E+00  1.06682E+03  1.364E+00  7.455E+00  6.709E-02  1.682E+00
   1    5    8     3     5    1.0456E+00  1.5790E-01   8.8768E-01  0.000E+00  0.000E+00  0.000E+00  1.06362E+03  1.164E+00  6.655E+00  4.991E-02  1.582E+00
   1    6    8     3     6    8.8768E-01  5.5980E-02   8.3170E-01  0.000E+00  0.000E+00  0.000E+00  1.06158E+03  1.036E+00  6.145E+00  1.844E-02  1.518E+00
   1    5   10     4     1    1.0000E+01  0.0000E+00   1.0000E+01  0.000E+00  0.000E+00  0.000E+00  1.07837E+03  6.385E-01  1.000E+01  0.000E+00  1.213E+00
   1    5    9     4     2    1.0000E+01  0.0000E+00   1.0000E+01  0.000E+00  0.000E+00  0.000E+00  1.07155E+03  6.385E-01  1.000E+01  0.000E+00  1.213E+00
   1    6    8     4     3    1.0000E+01  0.0000E+00   1.0000E+01  0.000E+00  0.000E+00  0.000E+00  1.06382E+03  6.385E-01  1.000E+01  0.000E+00  1.213E+00
   1    6    8     5     1    1.0832E+01  2.3262E-01   1.0599E+01  0.000E+00  0.000E+00  0.000E+00  1.05869E+03  6.881E-01  1.577E+01  6.307E-02  1.229E+00
   1    7    7     5     2    1.0599E+01  2.8607E-01   1.0313E+01  0.000E+00  0.000E+00  0.000E+00  1.05418E+03  6.822E-01  1.554E+01  7.769E-02  1.227E+00
   1    8    7     5     3    1.0313E+01  1.9716E-01   1.0116E+01  0.000E+00  0.000E+00  0.000E+00  1.04993E+03  6.766E-01  1.532E+01  5.363E-02  1.226E+00
   1    8    6     5     4    1.0116E+01  1.3929E-01   9.9766E+00  0.000E+00  0.000E+00  0.000E+00  1.04692E+03  6.727E-01  1.517E+01  3.792E-02  1.224E+00
   1    9    6     6     1    3.4664E+01  0.0000E+00   3.4664E+01  0.000E+00  0.000E+00  0.000E+00  1.04421E+03  1.486E+00  1.200E+01  0.000E+00  1.495E+00
   1   10    7     6     2    3.4664E+01  0.0000E+00   3.4664E+01  0.000E+00  0.000E+00  0.000E+00  1.03967E+03  1.486E+00  1.200E+01  0.000E+00  1.495E+00
   1   11    7     6     3    3.4664E+01  0.0000E+00   3.4664E+01  0.000E+00  0.000E+00  0.000E+00  1.03512E+03  1.486E+00  1.200E+01  0.000E+00  1.495E+00
   1   12    7     6     4    3.4664E+01  0.0000E+00   3.4664E+01  0.000E+00  0.000E+00  0.000E+00  1.03058E+03  1.486E+00  1.200E+01  0.000E+00  1.495E+00
   1   13    7     6     5    3.4664E+01  0.0000E+00   3.4664E+01  0.000E+00  0.000E+00  0.000E+00  1.02739E+03  1.486E+00  1.200E+01  0.000E+00  3.243E-01
   1   14    9     7     1    1.5000E+02  1.3212E+00   1.4868E+02  0.000E+00  0.000E+00  0.000E+00  1.03987E+03  2.288E+00  5.529E+01  5.593E-01  7.874E-01
   1   13    8     7     2    1.4868E+02  2.0006E+00   1.4668E+02  0.000E+00  0.000E+00  0.000E+00  1.03478E+03  2.279E+00  5.526E+01  6.148E-01  1.085E+00
   1   13    7     7     3    1.4668E+02  1.8238E+00   1.4485E+02  0.000E+00  0.000E+00  0.000E+00  1.02969E+03  2.269E+00  5.521E+01  5.584E-01  1.089E+00
   1   13    6     8     1    1.7952E+02  1.2433E+00   1.7827E+02  0.000E+00  0.000E+00  0.000E+00  1.02488E+03  3.009E+00  4.363E+01  4.446E-01  9.321E-01
   1   13    5     8     2    1.7827E+02  4.3023E-01   1.7784E+02  0.000E+00  0.000E+00  0.000E+00  1.01863E+03  3.004E+00  4.356E+01  4.439E-01  3.231E-01
   1   13    4     8     3    1.7784E+02 -2.1143E+00   1.7996E+02  0.000E+00  0.000E+00  0.000E+00  1.01238E+03  3.009E+00  4.363E+01  4.446E+00 -1.585E-01
   1   13    3     8     4    1.7996E+02 -3.8399E+00   1.8380E+02  0.000E+00  0.000E+00  0.000E+00  1.00615E+03  3.028E+00  4.391E+01  4.474E+00 -2.861E-01
   1   13    2     8     5    1.8380E+02 -3.1652E+00   1.8696E+02  0.000E+00  0.000E+00  0.000E+00  9.99925E+02  3.050E+00  4.422E+01  4.506E+00 -2.341E-01
   1   13    1     8     6    1.8696E+02 -2.3608E+00   1.8932E+02  0.000E+00  0.000E+00  0.000E+00  9.94942E+02  3.067E+00  4.447E+01  2.719E+00 -2.895E-01
   1    6    8     9     1    0.0000E+00  0.0000E+00   0.0000E+00  0.000E+00  0.000E+00  0.000E+00  1.07850E+03  0.000E+00  4.000E+00  0.000E+00  1.000E+00



 UBDSV3 SAVING "     NETRECHARGE" ON UNIT 100 AT TIME STEP     5, STRESS PERIOD   5
 UBDSV3 SAVING "    NETDISCHARGE" ON UNIT 101 AT TIME STEP     5, STRESS PERIOD   5
 UBDSV3 SAVING "           GW ET" ON UNIT  61 AT TIME STEP     5, STRESS PERIOD   5
 UBDSV3 SAVING "    UZF RECHARGE" ON UNIT  61 AT TIME STEP     5, STRESS PERIOD   5
 UBDSV3 SAVING " SURFACE LEAKAGE" ON UNIT  61 AT TIME STEP     5, STRESS PERIOD   5
 UBDSV3 SAVING "       HORT+DUNN" ON UNIT  61 AT TIME STEP     5, STRESS PERIOD   5
 UBDSV3 SAVING "  STORAGE CHANGE" ON UNIT  61 AT TIME STEP     5, STRESS PERIOD   5


UNSATURATED ZONE PACKAGE VOLUMETRIC BUDGET FOR  TIME STEP     5 STRESS PERIOD    5
  ------------------------------------------------------------------------------



     CUMULATIVE VOLUMES      L**3       RATES FOR THIS TIME STEP      L**3/T
     ------------------                 ------------------------

           IN:                                      IN:
           ---                                      ---
        INFILTRATION =     9280125.0000          INFILTRATION =           0.8475

          OUT:                                     OUT:
          ----                                     ----
              UZF ET =     8637661.0289                UZF ET =          14.4999
        UZF RECHARGE =   239876643.1777          UZF RECHARGE =          26.9235

            IN - OUT =  -239234179.2066              IN - OUT =         -40.5760

          STORAGE:                                 STORAGE:
          --------                                 --------
      STORAGE CHANGE =  -239232953.2921        STORAGE CHANGE =         -40.5760

 PERCENT DISCREPANCY IS DIFFERENCE BETWEEN IN-OUT MINUS CHANGE IN STORAGE
 DIVIDED BY THE AVERAGE OF IN AND OUT TIMES 100

 PERCENT DISCREPANCY =          -0.00     PERCENT DISCREPANCY =           0.00






1
  VOLUMETRIC BUDGET FOR ENTIRE MODEL AT END OF TIME STEP    5, STRESS PERIOD   5
  ------------------------------------------------------------------------------

     CUMULATIVE VOLUMES      L**3       RATES FOR THIS TIME STEP      L**3/T
     ------------------                 ------------------------

           IN:                                      IN:
           ---                                      ---
             STORAGE =     1221703.3750               STORAGE =           2.3279
       CONSTANT HEAD =           0.0000         CONSTANT HEAD =           0.0000
               WELLS =           0.0000                 WELLS =           0.0000
     HEAD DEP BOUNDS =     3175600.2500       HEAD DEP BOUNDS =           0.2848
      STREAM LEAKAGE =   113702776.0000        STREAM LEAKAGE =          10.1553
        UZF RECHARGE =   239876608.0000          UZF RECHARGE =          26.9235
               GW ET =           0.0000                 GW ET =           0.0000
     SURFACE LEAKAGE =           0.0000       SURFACE LEAKAGE =           0.0000

            TOTAL IN =   357976704.0000              TOTAL IN =          39.6915

          OUT:                                     OUT:
          ----                                     ----
             STORAGE =   259878192.0000               STORAGE =          27.9122
       CONSTANT HEAD =           0.0000         CONSTANT HEAD =           0.0000
               WELLS =           0.0000                 WELLS =           0.0000
     HEAD DEP BOUNDS =     3171961.5000       HEAD DEP BOUNDS =           0.2968
      STREAM LEAKAGE =    91564424.0000        STREAM LEAKAGE =          11.4802
        UZF RECHARGE =           0.0000          UZF RECHARGE =           0.0000
               GW ET =     3341165.5000                 GW ET =       5.2541E-05
     SURFACE LEAKAGE =           0.0000       SURFACE LEAKAGE =           0.0000

           TOTAL OUT =   357955744.0000             TOTAL OUT =          39.6892

            IN - OUT =       20960.0000              IN - OUT =       2.2583E-03

 PERCENT DISCREPANCY =           0.01     PERCENT DISCREPANCY =           0.01






         TIME SUMMARY AT END OF TIME STEP    5 IN STRESS PERIOD    5
                    SECONDS     MINUTES      HOURS       DAYS        YEARS
                    -----------------------------------------------------------
   TIME STEP LENGTH  87600.      1460.0      24.333      1.0139     2.77588E-03
 STRESS PERIOD TIME 4.38000E+05  7300.0      121.67      5.0694     1.38794E-02
         TOTAL TIME 1.09500E+07 1.82500E+05  3041.7      126.74     0.34698    
1
 
 SOLVING FOR HEAD 
                                                   Max.-Head-Change                         Max.-Flux-Residual
  Residual-Control   Outer-Iter.   Inner-Iter.     Column Row Layer    Maximum-Head-Change  Column Row Layer    Maximum-Flux-Residual          L2-NORM 
          0                 1           2             2   13     1      -0.1176122252E-01       2   13    1        -0.6636371206E+00      0.2128876138E+01
          0                 2           2             8    3     1       0.3256444019E-02       8    3    1         0.8464985589E-01      0.5072940375E+00
          0                 3           2             8    3     1       0.1461912518E-02       8    3    1         0.3800253374E-01      0.1924177856E+00
          0                 4           2             8    3     1       0.6562789269E-03       8    3    1         0.1706036983E-01      0.8384385581E-01
          0                 5           2             8    3     1       0.2946081382E-03       8    3    1         0.7658673672E-02      0.3737650186E-01
          0                 6           2             8    3     1       0.1322483509E-03       8    3    1         0.3438015896E-02      0.1671954459E-01
          0                 7           1             8    3     1       0.5936427019E-04       8    3    1         0.1543303891E-02      0.7483372486E-02
          0                 8           1             8    3     1       0.2664706954E-04       8    3    1         0.6927625136E-03      0.3349874764E-02
          0                 9           1             8    3     1       0.1196088622E-04       8    3    1         0.3109616182E-03      0.1499647352E-02
          0                10           1             8    3     1       0.5368673188E-05       8    3    1         0.1395785870E-03      0.6713887940E-03

    ------------------------------------------------
       NWT REQUIRED           10 OUTER ITERATIONS 
       AND A TOTAL OF         16 INNER ITERATIONS.
    ------------------------------------------------

 NO OUTPUT CONTROL FOR STRESS PERIOD    5   TIME STEP    6
 
 SOLVING FOR HEAD 
                                                   Max.-Head-Change                         Max.-Flux-Residual
  Residual-Control   Outer-Iter.   Inner-Iter.     Column Row Layer    Maximum-Head-Change  Column Row Layer    Maximum-Flux-Residual          L2-NORM 
          0                 1           2             2   13     1      -0.1085453606E-01       2   13    1        -0.6124387110E+00      0.2079124530E+01
          0                 2           2             8    3     1       0.3252435172E-02       8    3    1         0.8454708965E-01      0.5043566874E+00
          0                 3           2             8    3     1       0.1460082947E-02       8    3    1         0.3795560649E-01      0.1918797136E+00
          0                 4           2             8    3     1       0.6554444913E-03       8    3    1         0.1703895567E-01      0.8361941277E-01
          0                 5           2             8    3     1       0.2942278039E-03       8    3    1         0.7648908188E-02      0.3727684257E-01
          0                 6           2             8    3     1       0.1320750978E-03       8    3    1         0.3433565299E-02      0.1667524219E-01
          0                 7           1             8    3     1       0.5928539280E-04       8    3    1         0.1541276730E-02      0.7463677400E-02
          0                 8           1             8    3     1       0.2661117823E-04       8    3    1         0.6918396975E-03      0.3341117903E-02
          0                 9           1             8    3     1       0.1194456285E-04       8    3    1         0.3105417487E-03      0.1495753233E-02
          0                10           1             8    3     1       0.5361252893E-05       8    3    1         0.1393876497E-03      0.6696569884E-03

    ------------------------------------------------
       NWT REQUIRED           10 OUTER ITERATIONS 
       AND A TOTAL OF         16 INNER ITERATIONS.
    ------------------------------------------------

 NO OUTPUT CONTROL FOR STRESS PERIOD    5   TIME STEP    7
 
 SOLVING FOR HEAD 
                                                   Max.-Head-Change                         Max.-Flux-Residual
  Residual-Control   Outer-Iter.   Inner-Iter.     Column Row Layer    Maximum-Head-Change  Column Row Layer    Maximum-Flux-Residual          L2-NORM 
          0                 1           2             2   13     1      -0.1001762699E-01       2   13    1        -0.5651854244E+00      0.2036146346E+01
          0                 2           2             8    3     1       0.3248297373E-02       8    3    1         0.8444090353E-01      0.5017462897E+00
          0                 3           2             8    3     1       0.1458196896E-02       8    3    1         0.3790718116E-01      0.1913618993E+00
          0                 4           2             8    3     1       0.6545853195E-03       8    3    1         0.1701688536E-01      0.8340103919E-01
          0                 5           2             8    3     1       0.2938366373E-03       8    3    1         0.7638855343E-02      0.3717980520E-01
          0                 6           2             8    3     1       0.1318971020E-03       8    3    1         0.3428988872E-02      0.1663209530E-01
          0                 7           1             8    3     1       0.5920443923E-04       8    3    1         0.1539194477E-02      0.7444493482E-02
          0                 8           1             8    3     1       0.2657437776E-04       8    3    1         0.6908927600E-03      0.3332587454E-02
          0                 9           1             8    3     1       0.1192784205E-04       8    3    1         0.3101113242E-03      0.1491959833E-02
          0                10           1             8    3     1       0.5353658647E-05       8    3    1         0.1391920893E-03      0.6679708401E-03

    ------------------------------------------------
       NWT REQUIRED           10 OUTER ITERATIONS 
       AND A TOTAL OF         16 INNER ITERATIONS.
    ------------------------------------------------

 NO OUTPUT CONTROL FOR STRESS PERIOD    5   TIME STEP    8
 
 SOLVING FOR HEAD 
                                                   Max.-Head-Change                         Max.-Flux-Residual
  Residual-Control   Outer-Iter.   Inner-Iter.     Column Row Layer    Maximum-Head-Change  Column Row Layer    Maximum-Flux-Residual          L2-NORM 
          0                 1           2             2   13     1      -0.9244888465E-02       2   13    1        -0.5215597562E+00      0.1999092460E+01
          0                 2           2             8    3     1       0.3244073634E-02       8    3    1         0.8433244383E-01      0.4994162183E+00
          0                 3           2             8    3     1       0.1456273086E-02       8    3    1         0.3785775688E-01      0.1908621081E+00
          0                 4           2             8    3     1       0.6537095598E-03       8    3    1         0.1699437617E-01      0.8318816353E-01
          0                 5           2             8    3     1       0.2934381842E-03       8    3    1         0.7628609690E-02      0.3708514489E-01
          0                 6           2             8    3     1       0.1317159050E-03       8    3    1         0.3424327744E-02      0.1659000062E-01
          0                 7           1             8    3     1       0.5912208017E-04       8    3    1         0.1537075023E-02      0.7425774503E-02
          0                 8           1             8    3     1       0.2653696003E-04       8    3    1         0.6899294818E-03      0.3324262778E-02
          0                 9           1             8    3     1       0.1191084938E-04       8    3    1         0.3096737206E-03      0.1488256781E-02
          0                10           1             8    3     1       0.5345945722E-05       8    3    1         0.1389933846E-03      0.6663224259E-03

    ------------------------------------------------
       NWT REQUIRED           10 OUTER ITERATIONS 
       AND A TOTAL OF         16 INNER ITERATIONS.
    ------------------------------------------------

 NO OUTPUT CONTROL FOR STRESS PERIOD    5   TIME STEP    9
 
 SOLVING FOR HEAD 
                                                   Max.-Head-Change                         Max.-Flux-Residual
  Residual-Control   Outer-Iter.   Inner-Iter.     Column Row Layer    Maximum-Head-Change  Column Row Layer    Maximum-Flux-Residual          L2-NORM 
          0                 1           2             2   13     1      -0.8531407541E-02       2   13    1        -0.4812836419E+00      0.1967165026E+01
          0                 2           2             8    3     1       0.3239768342E-02       8    3    1         0.8422181298E-01      0.4973251368E+00
          0                 3           2             8    3     1       0.1454313728E-02       8    3    1         0.3780738599E-01      0.1903789242E+00
          0                 4           2             8    3     1       0.6528183099E-03       8    3    1         0.1697145438E-01      0.8298054076E-01
          0                 5           2             8    3     1       0.2930329829E-03       8    3    1         0.7618184259E-02      0.3699276747E-01
          0                 6           2             8    3     1       0.1315317702E-03       8    3    1         0.3419588308E-02      0.1654891291E-01
          0                 7           1             8    3     1       0.5903844103E-04       8    3    1         0.1534921462E-02      0.7407501096E-02
          0                 8           1             8    3     1       0.2649898554E-04       8    3    1         0.6889513641E-03      0.3316135059E-02
          0                 9           1             8    3     1       0.1189361523E-04       8    3    1         0.3092296634E-03      0.1484641219E-02
          0                10           1             8    3     1       0.5338126876E-05       8    3    1         0.1387918660E-03      0.6647140577E-03

    ------------------------------------------------
       NWT REQUIRED           10 OUTER ITERATIONS 
       AND A TOTAL OF         16 INNER ITERATIONS.
    ------------------------------------------------

 OUTPUT CONTROL FOR STRESS PERIOD    5   TIME STEP   10
    PRINT BUDGET
    SAVE BUDGET
 UBUDSV SAVING "         STORAGE" ON UNIT102 AT TIME STEP    10, STRESS PERIOD    5
 UBUDSV SAVING "   CONSTANT HEAD" ON UNIT102 AT TIME STEP    10, STRESS PERIOD    5
 UBUDSV SAVING "FLOW RIGHT FACE " ON UNIT102 AT TIME STEP    10, STRESS PERIOD    5
 UBUDSV SAVING "FLOW FRONT FACE " ON UNIT102 AT TIME STEP    10, STRESS PERIOD    5

  HEAD DEP BOUNDS   PERIOD    5   STEP    10
 BOUNDARY      1   LAYER   1   ROW    13   COL     1   RATE   -0.295649    
 BOUNDARY      2   LAYER   1   ROW    14   COL     9   RATE    0.284412    



 STREAM LISTING     PERIOD      5   STEP       10

 LAYER ROW COL. STREAM  RCH.  FLOW INTO     FLOW TO   FLOW OUT OF   OVRLND.     DIRECT     STREAM       STREAM     STREAM     STREAM   STREAMBED  STREAMBED
                SEG.NO.  NO.  STRM. RCH.    AQUIFER    STRM. RCH.    RUNOFF     PRECIP       ET          HEAD       DEPTH      WIDTH   CONDCTNC.   GRADIENT

   1    1    1     1     1    2.8000E+01  2.5860E-01   2.7741E+01  0.000E+00  0.000E+00  0.000E+00  1.09427E+03  1.221E+00  1.361E+01  6.126E-02  1.407E+00
   1    2    2     1     2    2.7741E+01  4.0002E-01   2.7341E+01  0.000E+00  0.000E+00  0.000E+00  1.08928E+03  1.217E+00  1.355E+01  9.487E-02  1.406E+00
   1    3    3     1     3    2.7341E+01  3.4070E-01   2.7001E+01  0.000E+00  0.000E+00  0.000E+00  1.08363E+03  1.212E+00  1.348E+01  8.090E-02  1.404E+00
   1    3    4     1     4    2.7001E+01  3.1335E-01   2.6687E+01  0.000E+00  0.000E+00  0.000E+00  1.07861E+03  1.207E+00  1.342E+01  7.448E-02  1.402E+00
   1    4    5     2     1    2.4687E+01  0.0000E+00   2.4687E+01  0.000E+00  0.000E+00  0.000E+00  1.07313E+03  1.198E+00  1.200E+01  0.000E+00  1.399E+00
   1    5    6     2     2    2.4687E+01  0.0000E+00   2.4687E+01  0.000E+00  0.000E+00  0.000E+00  1.06771E+03  1.198E+00  1.200E+01  0.000E+00  1.399E+00
   1    6    6     2     3    2.4687E+01  0.0000E+00   2.4687E+01  0.000E+00  0.000E+00  0.000E+00  1.06299E+03  1.198E+00  1.200E+01  0.000E+00  1.399E+00
   1    7    6     2     4    2.4687E+01  0.0000E+00   2.4687E+01  0.000E+00  0.000E+00  0.000E+00  1.05827E+03  1.198E+00  1.200E+01  0.000E+00  1.399E+00
   1    8    6     2     5    2.4687E+01  0.0000E+00   2.4687E+01  0.000E+00  0.000E+00  0.000E+00  1.05356E+03  1.198E+00  1.200E+01  0.000E+00  1.399E+00
   1    3    5     3     1    2.0000E+00  2.8252E-01   1.7175E+00  0.000E+00  0.000E+00  0.000E+00  1.07555E+03  1.909E+00  9.636E+00  7.227E-02  1.955E+00
   1    3    6     3     2    1.7175E+00  2.4905E-01   1.4684E+00  0.000E+00  0.000E+00  0.000E+00  1.07264E+03  1.727E+00  8.909E+00  6.682E-02  1.864E+00
   1    3    7     3     3    1.4684E+00  1.9718E-01   1.2712E+00  0.000E+00  0.000E+00  0.000E+00  1.06987E+03  1.555E+00  8.218E+00  5.547E-02  1.777E+00
   1    4    8     3     4    1.2712E+00  2.2567E-01   1.0456E+00  0.000E+00  0.000E+00  0.000E+00  1.06682E+03  1.364E+00  7.455E+00  6.709E-02  1.682E+00
   1    5    8     3     5    1.0456E+00  1.5790E-01   8.8768E-01  0.000E+00  0.000E+00  0.000E+00  1.06362E+03  1.164E+00  6.655E+00  4.991E-02  1.582E+00
   1    6    8     3     6    8.8768E-01  5.5980E-02   8.3170E-01  0.000E+00  0.000E+00  0.000E+00  1.06158E+03  1.036E+00  6.145E+00  1.844E-02  1.518E+00
   1    5   10     4     1    1.0000E+01  0.0000E+00   1.0000E+01  0.000E+00  0.000E+00  0.000E+00  1.07837E+03  6.385E-01  1.000E+01  0.000E+00  1.213E+00
   1    5    9     4     2    1.0000E+01  0.0000E+00   1.0000E+01  0.000E+00  0.000E+00  0.000E+00  1.07155E+03  6.385E-01  1.000E+01  0.000E+00  1.213E+00
   1    6    8     4     3    1.0000E+01  0.0000E+00   1.0000E+01  0.000E+00  0.000E+00  0.000E+00  1.06382E+03  6.385E-01  1.000E+01  0.000E+00  1.213E+00
   1    6    8     5     1    1.0832E+01  2.3262E-01   1.0599E+01  0.000E+00  0.000E+00  0.000E+00  1.05869E+03  6.881E-01  1.577E+01  6.307E-02  1.229E+00
   1    7    7     5     2    1.0599E+01  2.8607E-01   1.0313E+01  0.000E+00  0.000E+00  0.000E+00  1.05418E+03  6.822E-01  1.554E+01  7.769E-02  1.227E+00
   1    8    7     5     3    1.0313E+01  1.9716E-01   1.0116E+01  0.000E+00  0.000E+00  0.000E+00  1.04993E+03  6.766E-01  1.532E+01  5.363E-02  1.226E+00
   1    8    6     5     4    1.0116E+01  1.3929E-01   9.9766E+00  0.000E+00  0.000E+00  0.000E+00  1.04692E+03  6.727E-01  1.517E+01  3.792E-02  1.224E+00
   1    9    6     6     1    3.4664E+01  0.0000E+00   3.4664E+01  0.000E+00  0.000E+00  0.000E+00  1.04421E+03  1.486E+00  1.200E+01  0.000E+00  1.495E+00
   1   10    7     6     2    3.4664E+01  0.0000E+00   3.4664E+01  0.000E+00  0.000E+00  0.000E+00  1.03967E+03  1.486E+00  1.200E+01  0.000E+00  1.495E+00
   1   11    7     6     3    3.4664E+01  0.0000E+00   3.4664E+01  0.000E+00  0.000E+00  0.000E+00  1.03512E+03  1.486E+00  1.200E+01  0.000E+00  1.495E+00
   1   12    7     6     4    3.4664E+01  0.0000E+00   3.4664E+01  0.000E+00  0.000E+00  0.000E+00  1.03058E+03  1.486E+00  1.200E+01  0.000E+00  1.495E+00
   1   13    7     6     5    3.4664E+01  0.0000E+00   3.4664E+01  0.000E+00  0.000E+00  0.000E+00  1.02739E+03  1.486E+00  1.200E+01  0.000E+00  3.209E-01
   1   14    9     7     1    1.5000E+02  1.3160E+00   1.4868E+02  0.000E+00  0.000E+00  0.000E+00  1.03987E+03  2.288E+00  5.529E+01  5.593E-01  7.843E-01
   1   13    8     7     2    1.4868E+02  1.9934E+00   1.4669E+02  0.000E+00  0.000E+00  0.000E+00  1.03478E+03  2.279E+00  5.526E+01  6.148E-01  1.081E+00
   1   13    7     7     3    1.4669E+02  1.8181E+00   1.4487E+02  0.000E+00  0.000E+00  0.000E+00  1.02969E+03  2.269E+00  5.521E+01  5.584E-01  1.085E+00
   1   13    6     8     1    1.7954E+02  1.2456E+00   1.7829E+02  0.000E+00  0.000E+00  0.000E+00  1.02488E+03  3.009E+00  4.364E+01  4.447E-01  9.338E-01
   1   13    5     8     2    1.7829E+02  4.3219E-01   1.7786E+02  0.000E+00  0.000E+00  0.000E+00  1.01863E+03  3.004E+00  4.356E+01  4.439E-01  3.246E-01
   1   13    4     8     3    1.7786E+02 -1.9399E+00   1.7980E+02  0.000E+00  0.000E+00  0.000E+00  1.01238E+03  3.009E+00  4.363E+01  4.446E+00 -1.455E-01
   1   13    3     8     4    1.7980E+02 -3.6736E+00   1.8347E+02  0.000E+00  0.000E+00  0.000E+00  1.00615E+03  3.026E+00  4.388E+01  4.472E+00 -2.738E-01
   1   13    2     8     5    1.8347E+02 -2.9674E+00   1.8644E+02  0.000E+00  0.000E+00  0.000E+00  9.99922E+02  3.047E+00  4.418E+01  4.502E+00 -2.197E-01
   1   13    1     8     6    1.8644E+02 -2.2867E+00   1.8873E+02  0.000E+00  0.000E+00  0.000E+00  9.94938E+02  3.063E+00  4.442E+01  2.716E+00 -2.807E-01
   1    6    8     9     1    0.0000E+00  0.0000E+00   0.0000E+00  0.000E+00  0.000E+00  0.000E+00  1.07850E+03  0.000E+00  4.000E+00  0.000E+00  1.000E+00



 UBDSV3 SAVING "     NETRECHARGE" ON UNIT 100 AT TIME STEP    10, STRESS PERIOD   5
 UBDSV3 SAVING "    NETDISCHARGE" ON UNIT 101 AT TIME STEP    10, STRESS PERIOD   5
 UBDSV3 SAVING "           GW ET" ON UNIT  61 AT TIME STEP    10, STRESS PERIOD   5
 UBDSV3 SAVING "    UZF RECHARGE" ON UNIT  61 AT TIME STEP    10, STRESS PERIOD   5
 UBDSV3 SAVING " SURFACE LEAKAGE" ON UNIT  61 AT TIME STEP    10, STRESS PERIOD   5
 UBDSV3 SAVING "       HORT+DUNN" ON UNIT  61 AT TIME STEP    10, STRESS PERIOD   5
 UBDSV3 SAVING "  STORAGE CHANGE" ON UNIT  61 AT TIME STEP    10, STRESS PERIOD   5


UNSATURATED ZONE PACKAGE VOLUMETRIC BUDGET FOR  TIME STEP    10 STRESS PERIOD    5
  ------------------------------------------------------------------------------



     CUMULATIVE VOLUMES      L**3       RATES FOR THIS TIME STEP      L**3/T
     ------------------                 ------------------------

           IN:                                      IN:
           ---                                      ---
        INFILTRATION =     9651330.0000          INFILTRATION =           0.8475

          OUT:                                     OUT:
          ----                                     ----
              UZF ET =    14988671.2486                UZF ET =          14.5000
        UZF RECHARGE =   251616660.9414          UZF RECHARGE =          26.7422

            IN - OUT =  -256954002.1900              IN - OUT =         -40.3948

          STORAGE:                                 STORAGE:
          --------                                 --------
      STORAGE CHANGE =  -256952776.1243        STORAGE CHANGE =         -40.3948

 PERCENT DISCREPANCY IS DIFFERENCE BETWEEN IN-OUT MINUS CHANGE IN STORAGE
 DIVIDED BY THE AVERAGE OF IN AND OUT TIMES 100

 PERCENT DISCREPANCY =          -0.00     PERCENT DISCREPANCY =           0.00






1
  VOLUMETRIC BUDGET FOR ENTIRE MODEL AT END OF TIME STEP   10, STRESS PERIOD   5
  ------------------------------------------------------------------------------

     CUMULATIVE VOLUMES      L**3       RATES FOR THIS TIME STEP      L**3/T
     ------------------                 ------------------------

           IN:                                      IN:
           ---                                      ---
             STORAGE =     2036940.8750               STORAGE =           1.5817
       CONSTANT HEAD =           0.0000         CONSTANT HEAD =           0.0000
               WELLS =           0.0000                 WELLS =           0.0000
     HEAD DEP BOUNDS =     3300234.5000       HEAD DEP BOUNDS =           0.2844
      STREAM LEAKAGE =   118147112.0000        STREAM LEAKAGE =          10.1414
        UZF RECHARGE =   251616624.0000          UZF RECHARGE =          26.7422
               GW ET =           0.0000                 GW ET =           0.0000
     SURFACE LEAKAGE =           0.0000       SURFACE LEAKAGE =           0.0000

            TOTAL IN =   375100928.0000              TOTAL IN =          38.7498

          OUT:                                     OUT:
          ----                                     ----
             STORAGE =   272013408.0000               STORAGE =          27.5842
       CONSTANT HEAD =           0.0000         CONSTANT HEAD =           0.0000
               WELLS =           0.0000                 WELLS =           0.0000
     HEAD DEP BOUNDS =     3301645.5000       HEAD DEP BOUNDS =           0.2956
      STREAM LEAKAGE =    96422784.0000        STREAM LEAKAGE =          10.8677
        UZF RECHARGE =           0.0000          UZF RECHARGE =           0.0000
               GW ET =     3341165.5000                 GW ET =       8.3268E-09
     SURFACE LEAKAGE =           0.0000       SURFACE LEAKAGE =           0.0000

           TOTAL OUT =   375078976.0000             TOTAL OUT =          38.7475

            IN - OUT =       21952.0000              IN - OUT =       2.2278E-03

 PERCENT DISCREPANCY =           0.01     PERCENT DISCREPANCY =           0.01






         TIME SUMMARY AT END OF TIME STEP   10 IN STRESS PERIOD    5
                    SECONDS     MINUTES      HOURS       DAYS        YEARS
                    -----------------------------------------------------------
   TIME STEP LENGTH  87600.      1460.0      24.333      1.0139     2.77588E-03
 STRESS PERIOD TIME 8.76000E+05  14600.      243.33      10.139     2.77588E-02
         TOTAL TIME 1.13880E+07 1.89800E+05  3163.3      131.81     0.36086    
1
 
 SOLVING FOR HEAD 
                                                   Max.-Head-Change                         Max.-Flux-Residual
  Residual-Control   Outer-Iter.   Inner-Iter.     Column Row Layer    Maximum-Head-Change  Column Row Layer    Maximum-Flux-Residual          L2-NORM 
          0                 1           2             2   13     1      -0.7872669031E-02       2   13    1        -0.4441013588E+00      0.1939664465E+01
          0                 2           2             8    3     1       0.3235345863E-02       8    3    1         0.8410808635E-01      0.4954392979E+00
          0                 3           2             8    3     1       0.1452302791E-02       8    3    1         0.3775565250E-01      0.1899111907E+00
          0                 4           2             8    3     1       0.6519043585E-03       8    3    1         0.1694793286E-01      0.8277798127E-01
          0                 5           2             8    3     1       0.2926177906E-03       8    3    1         0.7607494866E-02      0.3690258761E-01
          0                 6           2             8    3     1       0.1313432375E-03       8    3    1         0.3414732696E-02      0.1650879663E-01
          0                 7           1             8    3     1       0.5895286691E-04       8    3    1         0.1532716778E-02      0.7389657368E-02
          0                 8           1             8    3     1       0.2646015980E-04       8    3    1         0.6879507476E-03      0.3308198135E-02
          0                 9           1             8    3     1       0.1187600604E-04       8    3    1         0.3087757007E-03      0.1481110668E-02
          0                10           1             8    3     1       0.5330143456E-05       8    3    1         0.1385859904E-03      0.6631422768E-03

    ------------------------------------------------
       NWT REQUIRED           10 OUTER ITERATIONS 
       AND A TOTAL OF         16 INNER ITERATIONS.
    ------------------------------------------------

 NO OUTPUT CONTROL FOR STRESS PERIOD    5   TIME STEP   11
 
 SOLVING FOR HEAD 
                                                   Max.-Head-Change                         Max.-Flux-Residual
  Residual-Control   Outer-Iter.   Inner-Iter.     Column Row Layer    Maximum-Head-Change  Column Row Layer    Maximum-Flux-Residual          L2-NORM 
          0                 1           2             3    2     1       0.7804911323E-02       2   13    1        -0.4097642890E+00      0.1915835292E+01
          0                 2           2             8    3     1       0.3230889255E-02       8    3    1         0.8399343125E-01      0.4937085988E+00
          0                 3           2             8    3     1       0.1450277390E-02       8    3    1         0.3770352486E-01      0.1894553210E+00
          0                 4           2             8    3     1       0.6509842890E-03       8    3    1         0.1692424434E-01      0.8257977154E-01
          0                 5           2             8    3     1       0.2922000164E-03       8    3    1         0.7596734870E-02      0.3681434694E-01
          0                 6           2             8    3     1       0.1311536183E-03       8    3    1         0.3409847308E-02      0.1646953861E-01
          0                 7           1             8    3     1       0.5886683722E-04       8    3    1         0.1530499569E-02      0.7372194379E-02
          0                 8           1             8    3     1       0.2642114298E-04       8    3    1         0.6869448725E-03      0.3300428638E-02
          0                 9           1             8    3     1       0.1185831756E-04       8    3    1         0.3083195430E-03      0.1477653214E-02
          0                10           1             8    3     1       0.5322126897E-05       8    3    1         0.1383791986E-03      0.6616044537E-03

    ------------------------------------------------
       NWT REQUIRED           10 OUTER ITERATIONS 
       AND A TOTAL OF         16 INNER ITERATIONS.
    ------------------------------------------------

 NO OUTPUT CONTROL FOR STRESS PERIOD    5   TIME STEP   12
 
 SOLVING FOR HEAD 
                                                   Max.-Head-Change                         Max.-Flux-Residual
  Residual-Control   Outer-Iter.   Inner-Iter.     Column Row Layer    Maximum-Head-Change  Column Row Layer    Maximum-Flux-Residual          L2-NORM 
          0                 1           2             3    2     1       0.7761444963E-02       3    2    1         0.4046815879E+00      0.1895294772E+01
          0                 2           2             8    3     1       0.3226323881E-02       8    3    1         0.8387588949E-01      0.4921357826E+00
          0                 3           2             8    3     1       0.1448204393E-02       8    3    1         0.3765013385E-01      0.1890130712E+00
          0                 4           2             8    3     1       0.6500433969E-03       8    3    1         0.1690000302E-01      0.8238603010E-01
          0                 5           2             8    3     1       0.2917731344E-03       8    3    1         0.7585733037E-02      0.3672802512E-01
          0                 6           2             8    3     1       0.1309600164E-03       8    3    1         0.3404856141E-02      0.1643112612E-01
          0                 7           1             8    3     1       0.5877906550E-04       8    3    1         0.1528236099E-02      0.7355104176E-02
          0                 8           1             8    3     1       0.2638136520E-04       8    3    1         0.6859187768E-03      0.3292824488E-02
          0                 9           1             8    3     1       0.1184029606E-04       8    3    1         0.3078545424E-03      0.1474270142E-02
          0                10           1             8    3     1       0.5313964898E-05       8    3    1         0.1381685451E-03      0.6600990815E-03

    ------------------------------------------------
       NWT REQUIRED           10 OUTER ITERATIONS 
       AND A TOTAL OF         16 INNER ITERATIONS.
    ------------------------------------------------

 NO OUTPUT CONTROL FOR STRESS PERIOD    5   TIME STEP   13
 
 SOLVING FOR HEAD 
                                                   Max.-Head-Change                         Max.-Flux-Residual
  Residual-Control   Outer-Iter.   Inner-Iter.     Column Row Layer    Maximum-Head-Change  Column Row Layer    Maximum-Flux-Residual          L2-NORM 
          0                 1           2             3    2     1       0.7719606305E-02       3    2    1         0.4024456287E+00      0.1877726069E+01
          0                 2           2             8    3     1       0.3221652896E-02       8    3    1         0.8375556424E-01      0.4907047574E+00
          0                 3           2             8    3     1       0.1446084779E-02       8    3    1         0.3759551420E-01      0.1885829146E+00
          0                 4           2             8    3     1       0.6490819267E-03       8    3    1         0.1687521934E-01      0.8219625743E-01
          0                 5           2             8    3     1       0.2913371687E-03       8    3    1         0.7574491794E-02      0.3664342392E-01
          0                 6           2             8    3     1       0.1307624043E-03       8    3    1         0.3399759290E-02      0.1639347340E-01
          0                 7           1             8    3     1       0.5868952412E-04       8    3    1         0.1525925978E-02      0.7338351262E-02
          0                 8           1             8    3     1       0.2634080544E-04       8    3    1         0.6848720805E-03      0.3285369631E-02
          0                 9           1             8    3     1       0.1182192978E-04       8    3    1         0.3073804517E-03      0.1470951589E-02
          0                10           1             8    3     1       0.5305650832E-05       8    3    1         0.1379538775E-03      0.6586230630E-03

    ------------------------------------------------
       NWT REQUIRED           10 OUTER ITERATIONS 
       AND A TOTAL OF         16 INNER ITERATIONS.
    ------------------------------------------------

 NO OUTPUT CONTROL FOR STRESS PERIOD    5   TIME STEP   14
 
 SOLVING FOR HEAD 
                                                   Max.-Head-Change                         Max.-Flux-Residual
  Residual-Control   Outer-Iter.   Inner-Iter.     Column Row Layer    Maximum-Head-Change  Column Row Layer    Maximum-Flux-Residual          L2-NORM 
          0                 1           2             3    2     1       0.7679322373E-02       3    2    1         0.4002932004E+00      0.1862565301E+01
          0                 2           2             8    3     1       0.3216920354E-02       8    3    1         0.8363358969E-01      0.4893839278E+00
          0                 3           2             8    3     1       0.1443938550E-02       8    3    1         0.3754018108E-01      0.1881637001E+00
          0                 4           2             8    3     1       0.6481089564E-03       8    3    1         0.1685012722E-01      0.8201047828E-01
          0                 5           2             8    3     1       0.2908962371E-03       8    3    1         0.7563117293E-02      0.3656056455E-01
          0                 6           2             8    3     1       0.1305626497E-03       8    3    1         0.3394604909E-02      0.1635659005E-01
          0                 7           1             8    3     1       0.5859905908E-04       8    3    1         0.1523591039E-02      0.7321936726E-02
          0                 8           1             8    3     1       0.2629984800E-04       8    3    1         0.6838146870E-03      0.3278064629E-02
          0                 9           1             8    3     1       0.1180339217E-04       8    3    1         0.3069017510E-03      0.1467700186E-02
          0                10           1             8    3     1       0.5297262733E-05       8    3    1         0.1377372236E-03      0.6571745666E-03

    ------------------------------------------------
       NWT REQUIRED           10 OUTER ITERATIONS 
       AND A TOTAL OF         16 INNER ITERATIONS.
    ------------------------------------------------

 OUTPUT CONTROL FOR STRESS PERIOD    5   TIME STEP   15
    PRINT BUDGET
    SAVE BUDGET
 UBUDSV SAVING "         STORAGE" ON UNIT102 AT TIME STEP    15, STRESS PERIOD    5
 UBUDSV SAVING "   CONSTANT HEAD" ON UNIT102 AT TIME STEP    15, STRESS PERIOD    5
 UBUDSV SAVING "FLOW RIGHT FACE " ON UNIT102 AT TIME STEP    15, STRESS PERIOD    5
 UBUDSV SAVING "FLOW FRONT FACE " ON UNIT102 AT TIME STEP    15, STRESS PERIOD    5

  HEAD DEP BOUNDS   PERIOD    5   STEP    15
 BOUNDARY      1   LAYER   1   ROW    13   COL     1   RATE   -0.294740    
 BOUNDARY      2   LAYER   1   ROW    14   COL     9   RATE    0.284066    



 STREAM LISTING     PERIOD      5   STEP       15

 LAYER ROW COL. STREAM  RCH.  FLOW INTO     FLOW TO   FLOW OUT OF   OVRLND.     DIRECT     STREAM       STREAM     STREAM     STREAM   STREAMBED  STREAMBED
                SEG.NO.  NO.  STRM. RCH.    AQUIFER    STRM. RCH.    RUNOFF     PRECIP       ET          HEAD       DEPTH      WIDTH   CONDCTNC.   GRADIENT

   1    1    1     1     1    2.8000E+01  2.5860E-01   2.7741E+01  0.000E+00  0.000E+00  0.000E+00  1.09427E+03  1.221E+00  1.361E+01  6.126E-02  1.407E+00
   1    2    2     1     2    2.7741E+01  4.0002E-01   2.7341E+01  0.000E+00  0.000E+00  0.000E+00  1.08928E+03  1.217E+00  1.355E+01  9.487E-02  1.406E+00
   1    3    3     1     3    2.7341E+01  3.4070E-01   2.7001E+01  0.000E+00  0.000E+00  0.000E+00  1.08363E+03  1.212E+00  1.348E+01  8.090E-02  1.404E+00
   1    3    4     1     4    2.7001E+01  3.1335E-01   2.6687E+01  0.000E+00  0.000E+00  0.000E+00  1.07861E+03  1.207E+00  1.342E+01  7.448E-02  1.402E+00
   1    4    5     2     1    2.4687E+01  0.0000E+00   2.4687E+01  0.000E+00  0.000E+00  0.000E+00  1.07313E+03  1.198E+00  1.200E+01  0.000E+00  1.399E+00
   1    5    6     2     2    2.4687E+01  0.0000E+00   2.4687E+01  0.000E+00  0.000E+00  0.000E+00  1.06771E+03  1.198E+00  1.200E+01  0.000E+00  1.399E+00
   1    6    6     2     3    2.4687E+01  0.0000E+00   2.4687E+01  0.000E+00  0.000E+00  0.000E+00  1.06299E+03  1.198E+00  1.200E+01  0.000E+00  1.399E+00
   1    7    6     2     4    2.4687E+01  0.0000E+00   2.4687E+01  0.000E+00  0.000E+00  0.000E+00  1.05827E+03  1.198E+00  1.200E+01  0.000E+00  1.399E+00
   1    8    6     2     5    2.4687E+01  0.0000E+00   2.4687E+01  0.000E+00  0.000E+00  0.000E+00  1.05356E+03  1.198E+00  1.200E+01  0.000E+00  1.399E+00
   1    3    5     3     1    2.0000E+00  2.8252E-01   1.7175E+00  0.000E+00  0.000E+00  0.000E+00  1.07555E+03  1.909E+00  9.636E+00  7.227E-02  1.955E+00
   1    3    6     3     2    1.7175E+00  2.4905E-01   1.4684E+00  0.000E+00  0.000E+00  0.000E+00  1.07264E+03  1.727E+00  8.909E+00  6.682E-02  1.864E+00
   1    3    7     3     3    1.4684E+00  1.9718E-01   1.2712E+00  0.000E+00  0.000E+00  0.000E+00  1.06987E+03  1.555E+00  8.218E+00  5.547E-02  1.777E+00
   1    4    8     3     4    1.2712E+00  2.2567E-01   1.0456E+00  0.000E+00  0.000E+00  0.000E+00  1.06682E+03  1.364E+00  7.455E+00  6.709E-02  1.682E+00
   1    5    8     3     5    1.0456E+00  1.5790E-01   8.8768E-01  0.000E+00  0.000E+00  0.000E+00  1.06362E+03  1.164E+00  6.655E+00  4.991E-02  1.582E+00
   1    6    8     3     6    8.8768E-01  5.5980E-02   8.3170E-01  0.000E+00  0.000E+00  0.000E+00  1.06158E+03  1.036E+00  6.145E+00  1.844E-02  1.518E+00
   1    5   10     4     1    1.0000E+01  0.0000E+00   1.0000E+01  0.000E+00  0.000E+00  0.000E+00  1.07837E+03  6.385E-01  1.000E+01  0.000E+00  1.213E+00
   1    5    9     4     2    1.0000E+01  0.0000E+00   1.0000E+01  0.000E+00  0.000E+00  0.000E+00  1.07155E+03  6.385E-01  1.000E+01  0.000E+00  1.213E+00
   1    6    8     4     3    1.0000E+01  0.0000E+00   1.0000E+01  0.000E+00  0.000E+00  0.000E+00  1.06382E+03  6.385E-01  1.000E+01  0.000E+00  1.213E+00
   1    6    8     5     1    1.0832E+01  2.3262E-01   1.0599E+01  0.000E+00  0.000E+00  0.000E+00  1.05869E+03  6.881E-01  1.577E+01  6.307E-02  1.229E+00
   1    7    7     5     2    1.0599E+01  2.8607E-01   1.0313E+01  0.000E+00  0.000E+00  0.000E+00  1.05418E+03  6.822E-01  1.554E+01  7.769E-02  1.227E+00
   1    8    7     5     3    1.0313E+01  1.9716E-01   1.0116E+01  0.000E+00  0.000E+00  0.000E+00  1.04993E+03  6.766E-01  1.532E+01  5.363E-02  1.226E+00
   1    8    6     5     4    1.0116E+01  1.3929E-01   9.9766E+00  0.000E+00  0.000E+00  0.000E+00  1.04692E+03  6.727E-01  1.517E+01  3.792E-02  1.224E+00
   1    9    6     6     1    3.4664E+01  0.0000E+00   3.4664E+01  0.000E+00  0.000E+00  0.000E+00  1.04421E+03  1.486E+00  1.200E+01  0.000E+00  1.495E+00
   1   10    7     6     2    3.4664E+01  0.0000E+00   3.4664E+01  0.000E+00  0.000E+00  0.000E+00  1.03967E+03  1.486E+00  1.200E+01  0.000E+00  1.495E+00
   1   11    7     6     3    3.4664E+01  0.0000E+00   3.4664E+01  0.000E+00  0.000E+00  0.000E+00  1.03512E+03  1.486E+00  1.200E+01  0.000E+00  1.495E+00
   1   12    7     6     4    3.4664E+01  0.0000E+00   3.4664E+01  0.000E+00  0.000E+00  0.000E+00  1.03058E+03  1.486E+00  1.200E+01  0.000E+00  1.495E+00
   1   13    7     6     5    3.4664E+01  0.0000E+00   3.4664E+01  0.000E+00  0.000E+00  0.000E+00  1.02739E+03  1.486E+00  1.200E+01  0.000E+00  3.182E-01
   1   14    9     7     1    1.5000E+02  1.3110E+00   1.4869E+02  0.000E+00  0.000E+00  0.000E+00  1.03987E+03  2.288E+00  5.530E+01  5.593E-01  7.813E-01
   1   13    8     7     2    1.4869E+02  1.9865E+00   1.4670E+02  0.000E+00  0.000E+00  0.000E+00  1.03478E+03  2.279E+00  5.526E+01  6.148E-01  1.077E+00
   1   13    7     7     3    1.4670E+02  1.8137E+00   1.4489E+02  0.000E+00  0.000E+00  0.000E+00  1.02969E+03  2.269E+00  5.521E+01  5.584E-01  1.083E+00
   1   13    6     8     1    1.7955E+02  1.2471E+00   1.7831E+02  0.000E+00  0.000E+00  0.000E+00  1.02488E+03  3.009E+00  4.364E+01  4.447E-01  9.348E-01
   1   13    5     8     2    1.7831E+02  4.3414E-01   1.7787E+02  0.000E+00  0.000E+00  0.000E+00  1.01863E+03  3.004E+00  4.356E+01  4.439E-01  3.260E-01
   1   13    4     8     3    1.7787E+02 -1.8366E+00   1.7971E+02  0.000E+00  0.000E+00  0.000E+00  1.01238E+03  3.009E+00  4.362E+01  4.445E+00 -1.377E-01
   1   13    3     8     4    1.7971E+02 -3.5671E+00   1.8328E+02  0.000E+00  0.000E+00  0.000E+00  1.00615E+03  3.026E+00  4.387E+01  4.470E+00 -2.660E-01
   1   13    2     8     5    1.8328E+02 -2.8349E+00   1.8611E+02  0.000E+00  0.000E+00  0.000E+00  9.99920E+02  3.045E+00  4.416E+01  4.500E+00 -2.100E-01
   1   13    1     8     6    1.8611E+02 -2.2261E+00   1.8834E+02  0.000E+00  0.000E+00  0.000E+00  9.94936E+02  3.061E+00  4.438E+01  2.714E+00 -2.734E-01
   1    6    8     9     1    0.0000E+00  0.0000E+00   0.0000E+00  0.000E+00  0.000E+00  0.000E+00  1.07850E+03  0.000E+00  4.000E+00  0.000E+00  1.000E+00



 UBDSV3 SAVING "     NETRECHARGE" ON UNIT 100 AT TIME STEP    15, STRESS PERIOD   5
 UBDSV3 SAVING "    NETDISCHARGE" ON UNIT 101 AT TIME STEP    15, STRESS PERIOD   5
 UBDSV3 SAVING "           GW ET" ON UNIT  61 AT TIME STEP    15, STRESS PERIOD   5
 UBDSV3 SAVING "    UZF RECHARGE" ON UNIT  61 AT TIME STEP    15, STRESS PERIOD   5
 UBDSV3 SAVING " SURFACE LEAKAGE" ON UNIT  61 AT TIME STEP    15, STRESS PERIOD   5
 UBDSV3 SAVING "       HORT+DUNN" ON UNIT  61 AT TIME STEP    15, STRESS PERIOD   5
 UBDSV3 SAVING "  STORAGE CHANGE" ON UNIT  61 AT TIME STEP    15, STRESS PERIOD   5


UNSATURATED ZONE PACKAGE VOLUMETRIC BUDGET FOR  TIME STEP    15 STRESS PERIOD    5
  ------------------------------------------------------------------------------



     CUMULATIVE VOLUMES      L**3       RATES FOR THIS TIME STEP      L**3/T
     ------------------                 ------------------------

           IN:                                      IN:
           ---                                      ---
        INFILTRATION =    10022535.0000          INFILTRATION =           0.8475

          OUT:                                     OUT:
          ----                                     ----
              UZF ET =    21339670.3501                UZF ET =          14.5001
        UZF RECHARGE =   263291232.9054          UZF RECHARGE =          26.6005

            IN - OUT =  -274608368.2555              IN - OUT =         -40.2530

          STORAGE:                                 STORAGE:
          --------                                 --------
      STORAGE CHANGE =  -274607142.0283        STORAGE CHANGE =         -40.2530

 PERCENT DISCREPANCY IS DIFFERENCE BETWEEN IN-OUT MINUS CHANGE IN STORAGE
 DIVIDED BY THE AVERAGE OF IN AND OUT TIMES 100

 PERCENT DISCREPANCY =          -0.00     PERCENT DISCREPANCY =           0.00






1
  VOLUMETRIC BUDGET FOR ENTIRE MODEL AT END OF TIME STEP   15, STRESS PERIOD   5
  ------------------------------------------------------------------------------

     CUMULATIVE VOLUMES      L**3       RATES FOR THIS TIME STEP      L**3/T
     ------------------                 ------------------------

           IN:                                      IN:
           ---                                      ---
             STORAGE =     2587336.0000               STORAGE =           1.0661
       CONSTANT HEAD =           0.0000         CONSTANT HEAD =           0.0000
               WELLS =           0.0000                 WELLS =           0.0000
     HEAD DEP BOUNDS =     3424716.0000       HEAD DEP BOUNDS =           0.2841
      STREAM LEAKAGE =   122585616.0000        STREAM LEAKAGE =          10.1284
        UZF RECHARGE =   263291200.0000          UZF RECHARGE =          26.6005
               GW ET =           0.0000                 GW ET =           0.0000
     SURFACE LEAKAGE =           0.0000       SURFACE LEAKAGE =           0.0000

            TOTAL IN =   391888864.0000              TOTAL IN =          38.0791

          OUT:                                     OUT:
          ----                                     ----
             STORAGE =   284022848.0000               STORAGE =          27.3172
       CONSTANT HEAD =           0.0000         CONSTANT HEAD =           0.0000
               WELLS =           0.0000                 WELLS =           0.0000
     HEAD DEP BOUNDS =     3430893.7500       HEAD DEP BOUNDS =           0.2947
      STREAM LEAKAGE =   101071064.0000        STREAM LEAKAGE =          10.4648
        UZF RECHARGE =           0.0000          UZF RECHARGE =           0.0000
               GW ET =     3341195.7500                 GW ET =       2.2592E-04
     SURFACE LEAKAGE =           0.0000       SURFACE LEAKAGE =           0.0000

           TOTAL OUT =   391865984.0000             TOTAL OUT =          38.0769

            IN - OUT =       22880.0000              IN - OUT =       2.2049E-03

 PERCENT DISCREPANCY =           0.01     PERCENT DISCREPANCY =           0.01






         TIME SUMMARY AT END OF TIME STEP   15 IN STRESS PERIOD    5
                    SECONDS     MINUTES      HOURS       DAYS        YEARS
                    -----------------------------------------------------------
   TIME STEP LENGTH  87600.      1460.0      24.333      1.0139     2.77588E-03
 STRESS PERIOD TIME 1.31400E+06  21900.      365.00      15.208     4.16381E-02
         TOTAL TIME 1.18260E+07 1.97100E+05  3285.0      136.88     0.37474    
1
 
 SOLVING FOR HEAD 
                                                   Max.-Head-Change                         Max.-Flux-Residual
  Residual-Control   Outer-Iter.   Inner-Iter.     Column Row Layer    Maximum-Head-Change  Column Row Layer    Maximum-Flux-Residual          L2-NORM 
          0                 1           2             3    2     1       0.7640524507E-02       3    2    1         0.3982205403E+00      0.1849481384E+01
          0                 2           2             8    3     1       0.3212129366E-02       8    3    1         0.8351005728E-01      0.4881602897E+00
          0                 3           2             8    3     1       0.1441766884E-02       8    3    1         0.3748416978E-01      0.1877548099E+00
          0                 4           2             8    3     1       0.6471249196E-03       8    3    1         0.1682473998E-01      0.8182851023E-01
          0                 5           2             8    3     1       0.2904504928E-03       8    3    1         0.7551614404E-02      0.3647938034E-01
          0                 6           2             8    3     1       0.1303608033E-03       8    3    1         0.3389394699E-02      0.1632044782E-01
          0                 7           1             8    3     1       0.5850768451E-04       8    3    1         0.1521231824E-02      0.7305851051E-02
          0                 8           1             8    3     1       0.2625849564E-04       8    3    1         0.6827467476E-03      0.3270905047E-02
          0                 9           1             8    3     1       0.1178468324E-04       8    3    1         0.3064184715E-03      0.1464513151E-02
          0                10           1             8    3     1       0.5288800851E-05       8    3    1         0.1375185844E-03      0.6557553286E-03

    ------------------------------------------------
       NWT REQUIRED           10 OUTER ITERATIONS 
       AND A TOTAL OF         16 INNER ITERATIONS.
    ------------------------------------------------

 NO OUTPUT CONTROL FOR STRESS PERIOD    5   TIME STEP   16
 
 SOLVING FOR HEAD 
                                                   Max.-Head-Change                         Max.-Flux-Residual
  Residual-Control   Outer-Iter.   Inner-Iter.     Column Row Layer    Maximum-Head-Change  Column Row Layer    Maximum-Flux-Residual          L2-NORM 
          0                 1           2             3    2     1       0.7603187894E-02       3    2    1         0.3962262610E+00      0.1838062249E+01
          0                 2           2             8    3     1       0.3207282976E-02       8    3    1         0.8338504790E-01      0.4869992336E+00
          0                 3           2             8    3     1       0.1439571112E-02       8    3    1         0.3742751562E-01      0.1873526733E+00
          0                 4           2             8    3     1       0.6461303988E-03       8    3    1         0.1679907303E-01      0.8164957874E-01
          0                 5           2             8    3     1       0.2900001908E-03       8    3    1         0.7539989871E-02      0.3639958043E-01
          0                 6           2             8    3     1       0.1301569756E-03       8    3    1         0.3384131600E-02      0.1628492434E-01
          0                 7           1             8    3     1       0.5841544931E-04       8    3    1         0.1518849633E-02      0.7290036886E-02
          0                 8           1             8    3     1       0.2621676974E-04       8    3    1         0.6816688320E-03      0.3263866179E-02
          0                 9           1             8    3     1       0.1176581224E-04       8    3    1         0.3059308631E-03      0.1461380824E-02
          0                10           1             8    3     1       0.5280268188E-05       8    3    1         0.1372980664E-03      0.6543601909E-03

    ------------------------------------------------
       NWT REQUIRED           10 OUTER ITERATIONS 
       AND A TOTAL OF         16 INNER ITERATIONS.
    ------------------------------------------------

 NO OUTPUT CONTROL FOR STRESS PERIOD    5   TIME STEP   17
 
 SOLVING FOR HEAD 
                                                   Max.-Head-Change                         Max.-Flux-Residual
  Residual-Control   Outer-Iter.   Inner-Iter.     Column Row Layer    Maximum-Head-Change  Column Row Layer    Maximum-Flux-Residual          L2-NORM 
          0                 1           2             3    2     1       0.7567168169E-02       3    2    1         0.3943027713E+00      0.1827675410E+01
          0                 2           2             8    3     1       0.3202345114E-02       8    3    1         0.8325761633E-01      0.4858672821E+00
          0                 3           2             8    3     1       0.1437335197E-02       8    3    1         0.3736979840E-01      0.1869555734E+00
          0                 4           2             8    3     1       0.6451182618E-03       8    3    1         0.1677293957E-01      0.8147332530E-01
          0                 5           2             8    3     1       0.2895421590E-03       8    3    1         0.7528160629E-02      0.3632101650E-01
          0                 6           2             8    3     1       0.1299497567E-03       8    3    1         0.3378778684E-02      0.1624994187E-01
          0                 7           1             8    3     1       0.5832172683E-04       8    3    1         0.1516428036E-02      0.7274466988E-02
          0                 8           1             8    3     1       0.2617439130E-04       8    3    1         0.6805736255E-03      0.3256933841E-02
          0                 9           1             8    3     1       0.1174665448E-04       8    3    1         0.3054356656E-03      0.1458294477E-02
          0                10           1             8    3     1       0.5271610094E-05       8    3    1         0.1370742232E-03      0.6529902217E-03

    ------------------------------------------------
       NWT REQUIRED           10 OUTER ITERATIONS 
       AND A TOTAL OF         16 INNER ITERATIONS.
    ------------------------------------------------

 NO OUTPUT CONTROL FOR STRESS PERIOD    5   TIME STEP   18
 
 SOLVING FOR HEAD 
                                                   Max.-Head-Change                         Max.-Flux-Residual
  Residual-Control   Outer-Iter.   Inner-Iter.     Column Row Layer    Maximum-Head-Change  Column Row Layer    Maximum-Flux-Residual          L2-NORM 
          0                 1           2             3    2     1       0.7532487012E-02       3    2    1         0.3924510589E+00      0.1819154385E+01
          0                 2           2             8    3     1       0.3197359100E-02       8    3    1         0.8312889129E-01      0.4848516783E+00
          0                 3           2             8    3     1       0.1435078533E-02       8    3    1         0.3731152346E-01      0.1865707291E+00
          0                 4           2             8    3     1       0.6440971926E-03       8    3    1         0.1674656582E-01      0.8130067686E-01
          0                 5           2             8    3     1       0.2890802854E-03       8    3    1         0.7516227956E-02      0.3624394257E-01
          0                 6           2             8    3     1       0.1297408872E-03       8    3    1         0.3373381293E-02      0.1621561834E-01
          0                 7           1             8    3     1       0.5822729565E-04       8    3    1         0.1513987333E-02      0.7259186023E-02
          0                 8           1             8    3     1       0.2613170898E-04       8    3    1         0.6794702205E-03      0.3250146134E-02
          0                 9           1             8    3     1       0.1172736717E-04       8    3    1         0.3049369587E-03      0.1455302683E-02
          0                10           1             8    3     1       0.5262896600E-05       8    3    1         0.1368488736E-03      0.6516372597E-03

    ------------------------------------------------
       NWT REQUIRED           10 OUTER ITERATIONS 
       AND A TOTAL OF         16 INNER ITERATIONS.
    ------------------------------------------------

 NO OUTPUT CONTROL FOR STRESS PERIOD    5   TIME STEP   19
 
 SOLVING FOR HEAD 
                                                   Max.-Head-Change                         Max.-Flux-Residual
  Residual-Control   Outer-Iter.   Inner-Iter.     Column Row Layer    Maximum-Head-Change  Column Row Layer    Maximum-Flux-Residual          L2-NORM 
          0                 1           2             3    2     1       0.7499086071E-02       3    2    1         0.3906680687E+00      0.1811533338E+01
          0                 2           2             8    3     1       0.3192326909E-02       8    3    1         0.8299894064E-01      0.4838704892E+00
          0                 3           2             8    3     1       0.1432801664E-02       8    3    1         0.3725271214E-01      0.1861914676E+00
          0                 4           2             8    3     1       0.6430672835E-03       8    3    1         0.1671995738E-01      0.8113056511E-01
          0                 5           2             8    3     1       0.2886145448E-03       8    3    1         0.7504192607E-02      0.3616801288E-01
          0                 6           2             8    3     1       0.1295303265E-03       8    3    1         0.3367938988E-02      0.1618180122E-01
          0                 7           1             8    3     1       0.5813212515E-04       8    3    1         0.1511526988E-02      0.7244128020E-02
          0                 8           1             8    3     1       0.2608870351E-04       8    3    1         0.6783582272E-03      0.3243425175E-02
          0                 9           1             8    3     1       0.1170793842E-04       8    3    1         0.3044344932E-03      0.1452277641E-02
          0                10           1             8    3     1       0.5254120829E-05       8    3    1         0.1366218833E-03      0.6503070694E-03

    ------------------------------------------------
       NWT REQUIRED           10 OUTER ITERATIONS 
       AND A TOTAL OF         16 INNER ITERATIONS.
    ------------------------------------------------

 NO OUTPUT CONTROL FOR STRESS PERIOD    5   TIME STEP   20
 
 SOLVING FOR HEAD 
                                                   Max.-Head-Change                         Max.-Flux-Residual
  Residual-Control   Outer-Iter.   Inner-Iter.     Column Row Layer    Maximum-Head-Change  Column Row Layer    Maximum-Flux-Residual          L2-NORM 
          0                 1           2             3    2     1       0.7466870604E-02       3    2    1         0.3889486693E+00      0.1804893623E+01
          0                 2           2             8    3     1       0.3187212827E-02       8    3    1         0.8286681346E-01      0.4829429768E+00
          0                 3           2             8    3     1       0.1430489024E-02       8    3    1         0.3719294995E-01      0.1858201131E+00
          0                 4           2             8    3     1       0.6420217532E-03       8    3    1         0.1669293360E-01      0.8096344156E-01
          0                 5           2             8    3     1       0.2881419837E-03       8    3    1         0.7491975878E-02      0.3609338357E-01
          0                 6           2             8    3     1       0.1293167882E-03       8    3    1         0.3362417490E-02      0.1614855729E-01
          0                 7           1             8    3     1       0.5803565507E-04       8    3    1         0.1509032077E-02      0.7229324166E-02
          0                 8           1             8    3     1       0.2604513129E-04       8    3    1         0.6772311502E-03      0.3236832587E-02
          0                 9           1             8    3     1       0.1168826231E-04       8    3    1         0.3039254451E-03      0.1449369591E-02
          0                10           1             8    3     1       0.5245237510E-05       8    3    1         0.1363920187E-03      0.6490697393E-03

    ------------------------------------------------
       NWT REQUIRED           10 OUTER ITERATIONS 
       AND A TOTAL OF         16 INNER ITERATIONS.
    ------------------------------------------------

 NO OUTPUT CONTROL FOR STRESS PERIOD    5   TIME STEP   21
 
 SOLVING FOR HEAD 
                                                   Max.-Head-Change                         Max.-Flux-Residual
  Residual-Control   Outer-Iter.   Inner-Iter.     Column Row Layer    Maximum-Head-Change  Column Row Layer    Maximum-Flux-Residual          L2-NORM 
          0                 1           2             3    2     1       0.7435789897E-02       3    2    1         0.3872901244E+00      0.1799110981E+01
          0                 2           2             8    3     1       0.3182059097E-02       8    3    1         0.8273362564E-01      0.4820583101E+00
          0                 3           2             8    3     1       0.1428159210E-02       8    3    1         0.3713272807E-01      0.1854553113E+00
          0                 4           2             8    3     1       0.6409687872E-03       8    3    1         0.1666571072E-01      0.8079899322E-01
          0                 5           2             8    3     1       0.2876662062E-03       8    3    1         0.7479672971E-02      0.3601993551E-01
          0                 6           2             8    3     1       0.1291018596E-03       8    3    1         0.3356858713E-02      0.1611583677E-01
          0                 7           1             8    3     1       0.5793858447E-04       8    3    1         0.1506521045E-02      0.7214752113E-02
          0                 8           1             8    3     1       0.2600129896E-04       8    3    1         0.6760971051E-03      0.3230342903E-02
          0                 9           1             8    3     1       0.1166847452E-04       8    3    1         0.3034133984E-03      0.1446451474E-02
          0                10           1             8    3     1       0.5236306295E-05       8    3    1         0.1361608643E-03      0.6477115903E-03

    ------------------------------------------------
       NWT REQUIRED           10 OUTER ITERATIONS 
       AND A TOTAL OF         16 INNER ITERATIONS.
    ------------------------------------------------

 NO OUTPUT CONTROL FOR STRESS PERIOD    5   TIME STEP   22
 
 SOLVING FOR HEAD 
                                                   Max.-Head-Change                         Max.-Flux-Residual
  Residual-Control   Outer-Iter.   Inner-Iter.     Column Row Layer    Maximum-Head-Change  Column Row Layer    Maximum-Flux-Residual          L2-NORM 
          0                 1           2             3    2     1       0.7405793923E-02       3    2    1         0.3856898351E+00      0.1793832530E+01
          0                 2           2             8    3     1       0.3176868145E-02       8    3    1         0.8259944067E-01      0.4811963852E+00
          0                 3           2             8    3     1       0.1425813299E-02       8    3    1         0.3707207477E-01      0.1850954724E+00
          0                 4           2             8    3     1       0.6399088657E-03       8    3    1         0.1663830130E-01      0.8063677013E-01
          0                 5           2             8    3     1       0.2871874249E-03       8    3    1         0.7467289465E-02      0.3594748182E-01
          0                 6           2             8    3     1       0.1288856354E-03       8    3    1         0.3351265145E-02      0.1608355628E-01
          0                 7           1             8    3     1       0.5784095525E-04       8    3    1         0.1503995009E-02      0.7200373384E-02
          0                 8           1             8    3     1       0.2595722626E-04       8    3    1         0.6749565954E-03      0.3223937837E-02
          0                 9           1             8    3     1       0.1164858319E-04       8    3    1         0.3028985664E-03      0.1443597633E-02
          0                10           1             8    3     1       0.5227330185E-05       8    3    1         0.1359285113E-03      0.6464401668E-03

    ------------------------------------------------
       NWT REQUIRED           10 OUTER ITERATIONS 
       AND A TOTAL OF         16 INNER ITERATIONS.
    ------------------------------------------------

 NO OUTPUT CONTROL FOR STRESS PERIOD    5   TIME STEP   23
 
 SOLVING FOR HEAD 
                                                   Max.-Head-Change                         Max.-Flux-Residual
  Residual-Control   Outer-Iter.   Inner-Iter.     Column Row Layer    Maximum-Head-Change  Column Row Layer    Maximum-Flux-Residual          L2-NORM 
          0                 1           2             3    2     1       0.7376874883E-02       3    2    1         0.3841473210E+00      0.1789041456E+01
          0                 2           2             8    3     1       0.3171603811E-02       8    3    1         0.8246330451E-01      0.4803490478E+00
          0                 3           2             8    3     1       0.1423435353E-02       8    3    1         0.3701056947E-01      0.1847396632E+00
          0                 4           2             8    3     1       0.6388349626E-03       8    3    1         0.1661051995E-01      0.8047674338E-01
          0                 5           2             8    3     1       0.2867025430E-03       8    3    1         0.7454743637E-02      0.3587603906E-01
          0                 6           2             8    3     1       0.1286667495E-03       8    3    1         0.3345600748E-02      0.1605172399E-01
          0                 7           1             8    3     1       0.5774216489E-04       8    3    1         0.1501438078E-02      0.7186194524E-02
          0                 8           1             8    3     1       0.2591264860E-04       8    3    1         0.6738026217E-03      0.3217621749E-02
          0                 9           1             8    3     1       0.1162847101E-04       8    3    1         0.3023778537E-03      0.1440783874E-02
          0                10           1             8    3     1       0.5218258282E-05       8    3    1         0.1356935953E-03      0.6451868364E-03

    ------------------------------------------------
       NWT REQUIRED           10 OUTER ITERATIONS 
       AND A TOTAL OF         16 INNER ITERATIONS.
    ------------------------------------------------

 NO OUTPUT CONTROL FOR STRESS PERIOD    5   TIME STEP   24
 
 SOLVING FOR HEAD 
                                                   Max.-Head-Change                         Max.-Flux-Residual
  Residual-Control   Outer-Iter.   Inner-Iter.     Column Row Layer    Maximum-Head-Change  Column Row Layer    Maximum-Flux-Residual          L2-NORM 
          0                 1           2             3    2     1       0.7348947746E-02       3    2    1         0.3826579749E+00      0.1784910297E+01
          0                 2           2             8    3     1       0.3166308095E-02       8    3    1         0.8232632564E-01      0.4795517654E+00
          0                 3           2             8    3     1       0.1421043877E-02       8    3    1         0.3694870064E-01      0.1843911816E+00
          0                 4           2             8    3     1       0.6377552305E-03       8    3    1         0.1658258188E-01      0.8031905759E-01
          0                 5           2             8    3     1       0.2862151516E-03       8    3    1         0.7442130303E-02      0.3580557495E-01
          0                 6           2             8    3     1       0.1284467847E-03       8    3    1         0.3339907305E-02      0.1602032255E-01
          0                 7           1             8    3     1       0.5764291170E-04       8    3    1         0.1498868658E-02      0.7172205353E-02
          0                 8           1             8    3     1       0.2586787109E-04       8    3    1         0.6726432732E-03      0.3211389476E-02
          0                 9           1             8    3     1       0.1160827380E-04       8    3    1         0.3018548446E-03      0.1438007055E-02
          0                10           1             8    3     1       0.5209149863E-05       8    3    1         0.1354576950E-03      0.6439496541E-03

    ------------------------------------------------
       NWT REQUIRED           10 OUTER ITERATIONS 
       AND A TOTAL OF         16 INNER ITERATIONS.
    ------------------------------------------------

 NO OUTPUT CONTROL FOR STRESS PERIOD    5   TIME STEP   25
 
 SOLVING FOR HEAD 
                                                   Max.-Head-Change                         Max.-Flux-Residual
  Residual-Control   Outer-Iter.   Inner-Iter.     Column Row Layer    Maximum-Head-Change  Column Row Layer    Maximum-Flux-Residual          L2-NORM 
          0                 1           2             3    2     1       0.7322009186E-02       3    2    1         0.3812216711E+00      0.1781389386E+01
          0                 2           2             8    3     1       0.3160983336E-02       8    3    1         0.8218856320E-01      0.4787993199E+00
          0                 3           2             8    3     1       0.1418639958E-02       8    3    1         0.3688649575E-01      0.1840494046E+00
          0                 4           2             8    3     1       0.6366701746E-03       8    3    1         0.1655449988E-01      0.8016371096E-01
          0                 5           2             8    3     1       0.2857254865E-03       8    3    1         0.7429455408E-02      0.3573610727E-01
          0                 6           2             8    3     1       0.1282258497E-03       8    3    1         0.3334187561E-02      0.1598935797E-01
          0                 7           1             8    3     1       0.5754324495E-04       8    3    1         0.1496288021E-02      0.7158409128E-02
          0                 8           1             8    3     1       0.2582291801E-04       8    3    1         0.6714791540E-03      0.3205242400E-02
          0                 9           1             8    3     1       0.1158800230E-04       8    3    1         0.3013298069E-03      0.1435267968E-02
          0                10           1             8    3     1       0.5200009555E-05       8    3    1         0.1352209320E-03      0.6427286101E-03

    ------------------------------------------------
       NWT REQUIRED           10 OUTER ITERATIONS 
       AND A TOTAL OF         16 INNER ITERATIONS.
    ------------------------------------------------

 NO OUTPUT CONTROL FOR STRESS PERIOD    5   TIME STEP   26
 
 SOLVING FOR HEAD 
                                                   Max.-Head-Change                         Max.-Flux-Residual
  Residual-Control   Outer-Iter.   Inner-Iter.     Column Row Layer    Maximum-Head-Change  Column Row Layer    Maximum-Flux-Residual          L2-NORM 
          0                 1           2             1    1     1       0.7305891768E-02       3    2    1         0.3798339976E+00      0.1778281707E+01
          0                 2           2             8    3     1       0.3155591967E-02       8    3    1         0.8204904147E-01      0.4780711517E+00
          0                 3           2             8    3     1       0.1416206714E-02       8    3    1         0.3682351630E-01      0.1837133420E+00
          0                 4           2             8    3     1       0.6355722086E-03       8    3    1         0.1652607687E-01      0.8001082540E-01
          0                 5           2             8    3     1       0.2852301379E-03       8    3    1         0.7416630386E-02      0.3566773551E-01
          0                 6           2             8    3     1       0.1280024131E-03       8    3    1         0.3328401732E-02      0.1595887985E-01
          0                 7           1             8    3     1       0.5744247696E-04       8    3    1         0.1493678291E-02      0.7144828210E-02
          0                 8           1             8    3     1       0.2577748034E-04       8    3    1         0.6703022259E-03      0.3199190839E-02
          0                 9           1             8    3     1       0.1156751695E-04       8    3    1         0.3007991291E-03      0.1432571139E-02
          0                10           1             8    3     1       0.5190775455E-05       8    3    1         0.1349816901E-03      0.6415270650E-03

    ------------------------------------------------
       NWT REQUIRED           10 OUTER ITERATIONS 
       AND A TOTAL OF         16 INNER ITERATIONS.
    ------------------------------------------------

 NO OUTPUT CONTROL FOR STRESS PERIOD    5   TIME STEP   27
 
 SOLVING FOR HEAD 
                                                   Max.-Head-Change                         Max.-Flux-Residual
  Residual-Control   Outer-Iter.   Inner-Iter.     Column Row Layer    Maximum-Head-Change  Column Row Layer    Maximum-Flux-Residual          L2-NORM 
          0                 1           2             1    1     1       0.7304414995E-02       1    1    1         0.3791570876E+00      0.1784347426E+01
          0                 2           2             8    3     1       0.3150176949E-02       8    3    1         0.8190886849E-01      0.4776631827E+00
          0                 3           2             8    3     1       0.1413763608E-02       8    3    1         0.3676026450E-01      0.1833843968E+00
          0                 4           2             8    3     1       0.6344701483E-03       8    3    1         0.1649754040E-01      0.7985820115E-01
          0                 5           2             8    3     1       0.2847330968E-03       8    3    1         0.7403758283E-02      0.3559944057E-01
          0                 6           2             8    3     1       0.1277782804E-03       8    3    1         0.3322596460E-02      0.1592844383E-01
          0                 7           1             8    3     1       0.5734142497E-04       8    3    1         0.1491060582E-02      0.7131256777E-02
          0                 8           1             8    3     1       0.2573192786E-04       8    3    1         0.6691220441E-03      0.3193142620E-02
          0                 9           1             8    3     1       0.1154698546E-04       8    3    1         0.3002671287E-03      0.1429875587E-02
          0                10           1             8    3     1       0.5181522722E-05       8    3    1         0.1347419146E-03      0.6403256704E-03

    ------------------------------------------------
       NWT REQUIRED           10 OUTER ITERATIONS 
       AND A TOTAL OF         16 INNER ITERATIONS.
    ------------------------------------------------

 NO OUTPUT CONTROL FOR STRESS PERIOD    5   TIME STEP   28
 
 SOLVING FOR HEAD 
                                                   Max.-Head-Change                         Max.-Flux-Residual
  Residual-Control   Outer-Iter.   Inner-Iter.     Column Row Layer    Maximum-Head-Change  Column Row Layer    Maximum-Flux-Residual          L2-NORM 
          0                 1           2             7    6     1      -0.1715118463E+00       7    6    1        -0.9362275693E+01      0.9527748666E+01
          0                 2           2             7    6     1       0.1882423154E+00       7    6    1         0.1035772616E+02      0.1036836663E+02
          0                 3           2             7    6     1      -0.9773398287E-02       7    6    1        -0.5442811719E+00      0.5777571974E+00
          0                 4           2             7    6     1      -0.1722585562E-02       7    6    1        -0.9583916342E-01      0.1248774449E+00
          0                 5           2             7    6     1      -0.3040172868E-03       7    6    1        -0.1690002589E-01      0.3935736114E-01
          0                 6           2             8    3     1       0.1275535830E-03       8    3    1         0.3316773983E-02      0.1617861344E-01
          0                 7           1             8    3     1       0.5724017640E-04       8    3    1         0.1488436531E-02      0.7138577186E-02
          0                 8           1             8    3     1       0.2568631473E-04       8    3    1         0.6679397026E-03      0.3189078867E-02
          0                 9           1             8    3     1       0.1152644071E-04       8    3    1         0.2997345001E-03      0.1427540000E-02
          0                10           1             8    3     1       0.5172271115E-05       8    3    1         0.1345020176E-03      0.6392461503E-03

    ------------------------------------------------
       NWT REQUIRED           10 OUTER ITERATIONS 
       AND A TOTAL OF         16 INNER ITERATIONS.
    ------------------------------------------------

 NO OUTPUT CONTROL FOR STRESS PERIOD    5   TIME STEP   29
 
 SOLVING FOR HEAD 
                                                   Max.-Head-Change                         Max.-Flux-Residual
  Residual-Control   Outer-Iter.   Inner-Iter.     Column Row Layer    Maximum-Head-Change  Column Row Layer    Maximum-Flux-Residual          L2-NORM 
          0                 1           2             7    6     1      -0.2894171120E+00       7    6    1        -0.1579120950E+02      0.1594123163E+02
          0                 2           2             7    6     1       0.3163493004E+00       7    6    1         0.1743613495E+02      0.1744318901E+02
          0                 3           2             7    6     1      -0.1816685696E-01       7    6    1        -0.1010996949E+01      0.1031741997E+01
          0                 4           2             7    6     1      -0.3205412482E-02       7    6    1        -0.1782187992E+00      0.1954775535E+00
          0                 5           2             7    6     1      -0.5663050212E-03       7    6    1        -0.3145985173E-01      0.4745225181E-01
          0                 6           2             8    3     1       0.1273266295E-03       7    6    1        -0.5560298772E-02      0.1683519218E-01
          0                 7           1             8    3     1       0.5713792450E-04       8    3    1         0.1485786202E-02      0.7181756823E-02
          0                 8           1             8    3     1       0.2564025416E-04       8    3    1         0.6667456579E-03      0.3190136654E-02
          0                 9           1             8    3     1       0.1150569563E-04       8    3    1         0.2991966459E-03      0.1426719504E-02
          0                10           1             8    3     1       0.5162929592E-05       8    3    1         0.1342597855E-03      0.6387843234E-03

    ------------------------------------------------
       NWT REQUIRED           10 OUTER ITERATIONS 
       AND A TOTAL OF         16 INNER ITERATIONS.
    ------------------------------------------------

 NO OUTPUT CONTROL FOR STRESS PERIOD    5   TIME STEP   30



 STREAM LISTING     PERIOD      5   STEP       30

 LAYER ROW COL. STREAM  RCH.  FLOW INTO     FLOW TO   FLOW OUT OF   OVRLND.     DIRECT     STREAM       STREAM     STREAM     STREAM   STREAMBED  STREAMBED
                SEG.NO.  NO.  STRM. RCH.    AQUIFER    STRM. RCH.    RUNOFF     PRECIP       ET          HEAD       DEPTH      WIDTH   CONDCTNC.   GRADIENT

   1    1    1     1     1    6.0420E+01  3.7345E-01   6.0047E+01  0.000E+00  0.000E+00  0.000E+00  1.09458E+03  1.531E+00  1.832E+01  8.243E-02  1.510E+00
   1    2    2     1     2    6.0047E+01  5.7833E-01   5.9468E+01  0.000E+00  0.000E+00  0.000E+00  1.08958E+03  1.525E+00  1.826E+01  1.278E-01  1.508E+00
   1    3    3     1     3    5.9468E+01  4.9321E-01   5.8975E+01  0.000E+00  0.000E+00  0.000E+00  1.08394E+03  1.518E+00  1.819E+01  1.092E-01  1.506E+00
   1    3    4     1     4    5.8975E+01  4.5416E-01   5.8521E+01  0.000E+00  0.000E+00  0.000E+00  1.07892E+03  1.512E+00  1.813E+01  1.006E-01  1.504E+00
   1    4    5     2     1    5.6521E+01  0.0000E+00   5.6521E+01  0.000E+00  0.000E+00  0.000E+00  1.07390E+03  1.970E+00  1.200E+01  0.000E+00  1.657E+00
   1    5    6     2     2    5.6521E+01  0.0000E+00   5.6521E+01  0.000E+00  0.000E+00  0.000E+00  1.06848E+03  1.970E+00  1.200E+01  0.000E+00  1.657E+00
   1    6    6     2     3    5.6521E+01  0.0000E+00   5.6521E+01  0.000E+00  0.000E+00  0.000E+00  1.06376E+03  1.970E+00  1.200E+01  0.000E+00  1.657E+00
   1    7    6     2     4    5.6521E+01  0.0000E+00   5.6521E+01  0.000E+00  0.000E+00  0.000E+00  1.05905E+03  1.970E+00  1.200E+01  0.000E+00  1.657E+00
   1    8    6     2     5    5.6521E+01  0.0000E+00   5.6521E+01  0.000E+00  0.000E+00  0.000E+00  1.05433E+03  1.970E+00  1.200E+01  0.000E+00  1.657E+00
   1    3    5     3     1    2.0000E+00  2.8252E-01   1.7175E+00  0.000E+00  0.000E+00  0.000E+00  1.07555E+03  1.909E+00  9.636E+00  7.227E-02  1.955E+00
   1    3    6     3     2    1.7175E+00  2.4905E-01   1.4684E+00  0.000E+00  0.000E+00  0.000E+00  1.07264E+03  1.727E+00  8.909E+00  6.682E-02  1.864E+00
   1    3    7     3     3    1.4684E+00  1.9718E-01   1.2712E+00  0.000E+00  0.000E+00  0.000E+00  1.06987E+03  1.555E+00  8.218E+00  5.547E-02  1.777E+00
   1    4    8     3     4    1.2712E+00  2.2567E-01   1.0456E+00  0.000E+00  0.000E+00  0.000E+00  1.06682E+03  1.364E+00  7.455E+00  6.709E-02  1.682E+00
   1    5    8     3     5    1.0456E+00  1.5790E-01   8.8768E-01  0.000E+00  0.000E+00  0.000E+00  1.06362E+03  1.164E+00  6.655E+00  4.991E-02  1.582E+00
   1    6    8     3     6    8.8768E-01  5.5980E-02   8.3170E-01  0.000E+00  0.000E+00  0.000E+00  1.06158E+03  1.036E+00  6.145E+00  1.844E-02  1.518E+00
   1    5   10     4     1    1.0000E+01  0.0000E+00   1.0000E+01  0.000E+00  0.000E+00  0.000E+00  1.07837E+03  6.385E-01  1.000E+01  0.000E+00  1.213E+00
   1    5    9     4     2    1.0000E+01  0.0000E+00   1.0000E+01  0.000E+00  0.000E+00  0.000E+00  1.07155E+03  6.385E-01  1.000E+01  0.000E+00  1.213E+00
   1    6    8     4     3    1.0000E+01  0.0000E+00   1.0000E+01  0.000E+00  0.000E+00  0.000E+00  1.06382E+03  6.385E-01  1.000E+01  0.000E+00  1.213E+00
   1    6    8     5     1    1.0832E+01  2.3262E-01   1.0599E+01  0.000E+00  0.000E+00  0.000E+00  1.05869E+03  6.881E-01  1.577E+01  6.307E-02  1.229E+00
   1    7    7     5     2    1.0599E+01  2.8607E-01   1.0313E+01  0.000E+00  0.000E+00  0.000E+00  1.05418E+03  6.822E-01  1.554E+01  7.769E-02  1.227E+00
   1    8    7     5     3    1.0313E+01  1.9716E-01   1.0116E+01  0.000E+00  0.000E+00  0.000E+00  1.04993E+03  6.766E-01  1.532E+01  5.363E-02  1.226E+00
   1    8    6     5     4    1.0116E+01  1.3929E-01   9.9766E+00  0.000E+00  0.000E+00  0.000E+00  1.04692E+03  6.727E-01  1.517E+01  3.792E-02  1.224E+00
   1    9    6     6     1    6.6497E+01  0.0000E+00   6.6497E+01  0.000E+00  0.000E+00  0.000E+00  1.04492E+03  2.196E+00  1.200E+01  0.000E+00  1.732E+00
   1   10    7     6     2    6.6497E+01  0.0000E+00   6.6497E+01  0.000E+00  0.000E+00  0.000E+00  1.04038E+03  2.196E+00  1.200E+01  0.000E+00  1.732E+00
   1   11    7     6     3    6.6497E+01  0.0000E+00   6.6497E+01  0.000E+00  0.000E+00  0.000E+00  1.03583E+03  2.196E+00  1.200E+01  0.000E+00  1.732E+00
   1   12    7     6     4    6.6497E+01  0.0000E+00   6.6497E+01  0.000E+00  0.000E+00  0.000E+00  1.03129E+03  2.196E+00  1.200E+01  0.000E+00  1.732E+00
   1   13    7     6     5    6.6497E+01  0.0000E+00   6.6497E+01  0.000E+00  0.000E+00  0.000E+00  1.02811E+03  2.196E+00  1.200E+01  0.000E+00  5.492E-01
   1   14    9     7     1    1.5000E+02  1.2996E+00   1.4870E+02  0.000E+00  0.000E+00  0.000E+00  1.03987E+03  2.288E+00  5.530E+01  5.593E-01  7.745E-01
   1   13    8     7     2    1.4870E+02  1.9711E+00   1.4673E+02  0.000E+00  0.000E+00  0.000E+00  1.03478E+03  2.279E+00  5.526E+01  6.148E-01  1.069E+00
   1   13    7     7     3    1.4673E+02  1.8040E+00   1.4493E+02  0.000E+00  0.000E+00  0.000E+00  1.02969E+03  2.269E+00  5.521E+01  5.584E-01  1.077E+00
   1   13    6     8     1    2.1142E+02  1.4157E+00   2.1001E+02  0.000E+00  0.000E+00  0.000E+00  1.02507E+03  3.200E+00  4.640E+01  4.728E-01  9.981E-01
   1   13    5     8     2    2.1001E+02  5.5323E-01   2.0945E+02  0.000E+00  0.000E+00  0.000E+00  1.01882E+03  3.194E+00  4.631E+01  4.720E-01  3.907E-01
   1   13    4     8     3    2.0945E+02 -1.0037E+00   2.1046E+02  0.000E+00  0.000E+00  0.000E+00  1.01257E+03  3.195E+00  4.633E+01  4.722E+00 -7.086E-02
   1   13    3     8     4    2.1046E+02 -2.8042E+00   2.1326E+02  0.000E+00  0.000E+00  0.000E+00  1.00633E+03  3.206E+00  4.649E+01  4.738E+00 -1.973E-01
   1   13    2     8     5    2.1326E+02 -2.0142E+00   2.1528E+02  0.000E+00  0.000E+00  0.000E+00  1.00009E+03  3.220E+00  4.669E+01  4.758E+00 -1.411E-01
   1   13    1     8     6    2.1528E+02 -1.7516E+00   2.1703E+02  0.000E+00  0.000E+00  0.000E+00  9.95105E+02  3.230E+00  4.684E+01  2.864E+00 -2.039E-01
   1    6    8     9     1    0.0000E+00  0.0000E+00   0.0000E+00  0.000E+00  0.000E+00  0.000E+00  1.07850E+03  0.000E+00  4.000E+00  0.000E+00  1.000E+00





UNSATURATED ZONE PACKAGE VOLUMETRIC BUDGET FOR  TIME STEP    30 STRESS PERIOD    5
  ------------------------------------------------------------------------------



     CUMULATIVE VOLUMES      L**3       RATES FOR THIS TIME STEP      L**3/T
     ------------------                 ------------------------

           IN:                                      IN:
           ---                                      ---
        INFILTRATION =    11136150.0000          INFILTRATION =           0.8475

          OUT:                                     OUT:
          ----                                     ----
              UZF ET =    40360002.4751                UZF ET =          14.3785
        UZF RECHARGE =   297966592.0447          UZF RECHARGE =          26.4582

            IN - OUT =  -327190444.5199              IN - OUT =         -39.9892

          STORAGE:                                 STORAGE:
          --------                                 --------
      STORAGE CHANGE =  -327189181.7066        STORAGE CHANGE =         -39.9888

 PERCENT DISCREPANCY IS DIFFERENCE BETWEEN IN-OUT MINUS CHANGE IN STORAGE
 DIVIDED BY THE AVERAGE OF IN AND OUT TIMES 100

 PERCENT DISCREPANCY =          -0.00     PERCENT DISCREPANCY =          -0.00






1
  VOLUMETRIC BUDGET FOR ENTIRE MODEL AT END OF TIME STEP   30, STRESS PERIOD   5
  ------------------------------------------------------------------------------

     CUMULATIVE VOLUMES      L**3       RATES FOR THIS TIME STEP      L**3/T
     ------------------                 ------------------------

           IN:                                      IN:
           ---                                      ---
             STORAGE =     3354869.7500               STORAGE =           0.0000
       CONSTANT HEAD =           0.0000         CONSTANT HEAD =           0.0000
               WELLS =           0.0000                 WELLS =           0.0000
     HEAD DEP BOUNDS =     3797379.2500       HEAD DEP BOUNDS =           0.2833
      STREAM LEAKAGE =   135946912.0000        STREAM LEAKAGE =          10.9662
        UZF RECHARGE =   297966528.0000          UZF RECHARGE =          26.4582
               GW ET =           0.0000                 GW ET =           0.0000
     SURFACE LEAKAGE =           0.0000       SURFACE LEAKAGE =           0.0000

            TOTAL IN =   441065696.0000              TOTAL IN =          37.7077

          OUT:                                     OUT:
          ----                                     ----
             STORAGE =   319696960.0000               STORAGE =          29.7171
       CONSTANT HEAD =           0.0000         CONSTANT HEAD =           0.0000
               WELLS =           0.0000                 WELLS =           0.0000
     HEAD DEP BOUNDS =     3816853.0000       HEAD DEP BOUNDS =           0.2932
      STREAM LEAKAGE =   114152472.0000        STREAM LEAKAGE =           7.5738
        UZF RECHARGE =           0.0000          UZF RECHARGE =           0.0000
               GW ET =     3373773.5000                 GW ET =           0.1215
     SURFACE LEAKAGE =           0.0000       SURFACE LEAKAGE =           0.0000

           TOTAL OUT =   441040064.0000             TOTAL OUT =          37.7056

            IN - OUT =       25632.0000              IN - OUT =       2.1248E-03

 PERCENT DISCREPANCY =           0.01     PERCENT DISCREPANCY =           0.01






         TIME SUMMARY AT END OF TIME STEP   30 IN STRESS PERIOD    5
                    SECONDS     MINUTES      HOURS       DAYS        YEARS
                    -----------------------------------------------------------
   TIME STEP LENGTH  87600.      1460.0      24.333      1.0139     2.77588E-03
 STRESS PERIOD TIME 2.62800E+06  43800.      730.00      30.417     8.32763E-02
         TOTAL TIME 1.31400E+07 2.19000E+05  3650.0      152.08     0.41638    
1
1
                            STRESS PERIOD NO.    6, LENGTH =   2628000.    
                            -----------------------------------------------

                              NUMBER OF TIME STEPS =    30

                               MULTIPLIER FOR DELT =     1.000

                            INITIAL TIME STEP SIZE =   87600.00    

 WELL NO.  LAYER   ROW   COL   STRESS RATE         
 --------------------------------------------------
      1      1      6      4       0.000    
      2      1      6      7       0.000    
      3      1      7      4       0.000    
      4      1      7      5       0.000    
      5      1      8      4       0.000    
      6      1      8      5       0.000    
      7      1      9      4       0.000    
      8      1      9      5       0.000    
      9      1     10      4       0.000    
     10      1     10      5       0.000    

     10 WELLS

 REUSING NON-PARAMETER GHB CELLS FROM LAST STRESS PERIOD

      2 GHB CELLS

 REUSING STREAM SEGMENT DATA FROM LAST STRESS PERIOD



            AREAL INFILTRATION RATE
 READING ON UNIT   19 WITH FORMAT: (10F4.0)            

            1           2           3           4           5           6           7           8           9          10
 ........................................................................................................................
   1   1.0000E-10  2.0000E-10   0.000       0.000       0.000       0.000       0.000       0.000       0.000       0.000    
   2   2.0000E-10  1.0000E-10  2.0000E-10   0.000       0.000      8.0000E-10  8.0000E-10  5.0000E-10   0.000       0.000    
   3    0.000      5.0000E-10  1.0000E-10  1.0000E-10  8.0000E-10  8.0000E-10  5.0000E-10  5.0000E-10   0.000       0.000    
   4   8.0000E-10  5.0000E-10  1.0000E-10  1.0000E-10  1.0000E-10  1.0000E-10  1.0000E-10  1.0000E-10  2.0000E-10   0.000    
   5   8.0000E-10  5.0000E-10  1.0000E-10  1.0000E-10  1.0000E-10  1.0000E-10  1.0000E-10  1.0000E-10  1.0000E-10  1.0000E-10
   6   8.0000E-10  5.0000E-10  5.0000E-10  2.0000E-10  2.0000E-10  1.0000E-10  1.0000E-10  1.0000E-10  1.0000E-10  5.0000E-10
   7   8.0000E-10  5.0000E-10  5.0000E-10  2.0000E-10  2.0000E-10  1.0000E-10  1.0000E-10  2.0000E-10  2.0000E-10   0.000    
   8    0.000      5.0000E-10  5.0000E-10  2.0000E-10  2.0000E-10  1.0000E-10  1.0000E-10  2.0000E-10  5.0000E-10   0.000    
   9    0.000      5.0000E-10  5.0000E-10  2.0000E-10  2.0000E-10  1.0000E-10  1.0000E-10  2.0000E-10  5.0000E-10   0.000    
  10    0.000      5.0000E-10  5.0000E-10  2.0000E-10  2.0000E-10  1.0000E-10  1.0000E-10  2.0000E-10  5.0000E-10  8.0000E-10
  11    0.000      1.0000E-10  1.0000E-10  1.0000E-10  1.0000E-10  1.0000E-10  1.0000E-10  2.0000E-10  5.0000E-10   0.000    
  12   1.0000E-10  1.0000E-10  1.0000E-10  1.0000E-10  1.0000E-10  1.0000E-10  1.0000E-10  1.0000E-10  2.0000E-10   0.000    
  13   1.0000E-10  1.0000E-10  2.0000E-10  2.0000E-10  2.0000E-10  2.0000E-10  2.0000E-10  1.0000E-10  1.0000E-10   0.000    
  14    0.000      2.0000E-10  5.0000E-10  5.0000E-10  5.0000E-10  5.0000E-10  5.0000E-10  2.0000E-10  1.0000E-10   0.000    
  15    0.000       0.000      8.0000E-10  8.0000E-10  8.0000E-10  8.0000E-10   0.000       0.000       0.000       0.000    

                  ET RATE =  1.000000E-08

 USING ET EXTINCTION DEPTH FROM PREVIOUS STRESS PERIOD. CURRENT PERIOD IS:       6

 USING EXTINCTION WATER CONTENT FROM PREVIOUS STRESS PERIOD. CURRENT PERIOD IS:       6
 
 SOLVING FOR HEAD 
                                                   Max.-Head-Change                         Max.-Flux-Residual
  Residual-Control   Outer-Iter.   Inner-Iter.     Column Row Layer    Maximum-Head-Change  Column Row Layer    Maximum-Flux-Residual          L2-NORM 
          0                 1           2             7    6     1      -0.2894115482E+00       7    6    1        -0.1579092967E+02      0.1612308559E+02
          0                 2           2             7    6     1       0.3163484721E+00       7    6    1         0.1743609869E+02      0.1744504852E+02
          0                 3           2             7    6     1      -0.1816542705E-01       7    6    1        -0.1010918585E+01      0.1032093370E+01
          0                 4           2             7    6     1      -0.3205154594E-02       7    6    1        -0.1782046648E+00      0.1955112488E+00
          0                 5           2             7    6     1      -0.5662585301E-03       7    6    1        -0.3145730281E-01      0.4745663118E-01
          0                 6           2             8    3     1       0.1270990766E-03       7    6    1        -0.5559839460E-02      0.1683591166E-01
          0                 7           1             8    3     1       0.5703540111E-04       8    3    1         0.1483128890E-02      0.7181899525E-02
          0                 8           1             8    3     1       0.2559406928E-04       8    3    1         0.6655484416E-03      0.3190154422E-02
          0                 9           1             8    3     1       0.1148489302E-04       8    3    1         0.2986573325E-03      0.1426710015E-02
          0                10           1             8    3     1       0.5153560558E-05       8    3    1         0.1340168718E-03      0.6387727105E-03

    ------------------------------------------------
       NWT REQUIRED           10 OUTER ITERATIONS 
       AND A TOTAL OF         16 INNER ITERATIONS.
    ------------------------------------------------

 NO OUTPUT CONTROL FOR STRESS PERIOD    6   TIME STEP    1
 
 SOLVING FOR HEAD 
                                                   Max.-Head-Change                         Max.-Flux-Residual
  Residual-Control   Outer-Iter.   Inner-Iter.     Column Row Layer    Maximum-Head-Change  Column Row Layer    Maximum-Flux-Residual          L2-NORM 
          0                 1           2             7    6     1      -0.2894059154E+00       7    6    1        -0.1579064581E+02      0.1609015535E+02
          0                 2           2             7    6     1       0.3163476399E+00       7    6    1         0.1743606227E+02      0.1744472271E+02
          0                 3           2             7    6     1      -0.1816398467E-01       7    6    1        -0.1010839524E+01      0.1031973562E+01
          0                 4           2             7    6     1      -0.3204894520E-02       7    6    1        -0.1781904083E+00      0.1954908960E+00
          0                 5           2             7    6     1      -0.5662116550E-03       7    6    1        -0.3145473247E-01      0.4744958391E-01
          0                 6           2             8    3     1       0.1268694948E-03       7    6    1        -0.5559376361E-02      0.1683261234E-01
          0                 7           1             8    3     1       0.5693198794E-04       8    3    1         0.1480447989E-02      0.7180346062E-02
          0                 8           1             8    3     1       0.2554749385E-04       8    3    1         0.6643408809E-03      0.3189430655E-02
          0                 9           1             8    3     1       0.1146391921E-04       8    3    1         0.2981134863E-03      0.1426373654E-02
          0                10           1             8    3     1       0.5144116990E-05       8    3    1         0.1337719745E-03      0.6386187145E-03

    ------------------------------------------------
       NWT REQUIRED           10 OUTER ITERATIONS 
       AND A TOTAL OF         16 INNER ITERATIONS.
    ------------------------------------------------

 NO OUTPUT CONTROL FOR STRESS PERIOD    6   TIME STEP    2
 
 SOLVING FOR HEAD 
                                                   Max.-Head-Change                         Max.-Flux-Residual
  Residual-Control   Outer-Iter.   Inner-Iter.     Column Row Layer    Maximum-Head-Change  Column Row Layer    Maximum-Flux-Residual          L2-NORM 
          0                 1           2             7    6     1      -0.2894003360E+00       7    6    1        -0.1579036496E+02      0.1606260038E+02
          0                 2           2             7    6     1       0.3163468178E+00       7    6    1         0.1743602641E+02      0.1744444463E+02
          0                 3           2             7    6     1      -0.1816255875E-01       7    6    1        -0.1010761382E+01      0.1031858993E+01
          0                 4           2             7    6     1      -0.3204637337E-02       7    6    1        -0.1781763131E+00      0.1954688113E+00
          0                 5           2             7    6     1      -0.5661652885E-03       7    6    1        -0.3145219046E-01      0.4744082196E-01
          0                 6           2             8    3     1       0.1266410466E-03       7    6    1        -0.5558918268E-02      0.1682833700E-01
          0                 7           1             8    3     1       0.5682909238E-04       8    3    1         0.1477780365E-02      0.7178334761E-02
          0                 8           1             8    3     1       0.2550115490E-04       8    3    1         0.6631393858E-03      0.3188499088E-02
          0                 9           1             8    3     1       0.1144305332E-04       8    3    1         0.2975724060E-03      0.1425945192E-02
          0                10           1             8    3     1       0.5134722569E-05       8    3    1         0.1335283378E-03      0.6384199614E-03

    ------------------------------------------------
       NWT REQUIRED           10 OUTER ITERATIONS 
       AND A TOTAL OF         16 INNER ITERATIONS.
    ------------------------------------------------

 NO OUTPUT CONTROL FOR STRESS PERIOD    6   TIME STEP    3
 
 SOLVING FOR HEAD 
                                                   Max.-Head-Change                         Max.-Flux-Residual
  Residual-Control   Outer-Iter.   Inner-Iter.     Column Row Layer    Maximum-Head-Change  Column Row Layer    Maximum-Flux-Residual          L2-NORM 
          0                 1           2             7    6     1      -0.2893948096E+00       7    6    1        -0.1579008683E+02      0.1603315836E+02
          0                 2           2             7    6     1       0.3163460043E+00       7    6    1         0.1743599108E+02      0.1744386783E+02
          0                 3           2             7    6     1      -0.1816114957E-01       7    6    1        -0.1010684168E+01      0.1031708396E+01
          0                 4           2             7    6     1      -0.3204383125E-02       7    6    1        -0.1781623824E+00      0.1954444706E+00
          0                 5           2             7    6     1      -0.5661194494E-03       7    6    1        -0.3144967768E-01      0.4743104304E-01
          0                 6           2             8    3     1       0.1264092371E-03       7    6    1        -0.5558465355E-02      0.1682348604E-01
          0                 7           1             8    3     1       0.5672472092E-04       8    3    1         0.1475073675E-02      0.7176053498E-02
          0                 8           1             8    3     1       0.2545416779E-04       8    3    1         0.6619207371E-03      0.3187448113E-02
          0                 9           1             8    3     1       0.1142190293E-04       8    3    1         0.2970237994E-03      0.1425464362E-02
          0                10           1             8    3     1       0.5125203468E-05       8    3    1         0.1332813968E-03      0.6382018605E-03

    ------------------------------------------------
       NWT REQUIRED           10 OUTER ITERATIONS 
       AND A TOTAL OF         16 INNER ITERATIONS.
    ------------------------------------------------

 NO OUTPUT CONTROL FOR STRESS PERIOD    6   TIME STEP    4
 
 SOLVING FOR HEAD 
                                                   Max.-Head-Change                         Max.-Flux-Residual
  Residual-Control   Outer-Iter.   Inner-Iter.     Column Row Layer    Maximum-Head-Change  Column Row Layer    Maximum-Flux-Residual          L2-NORM 
          0                 1           2             7    6     1      -0.2893892154E+00       7    6    1        -0.1578980501E+02      0.1600743242E+02
          0                 2           2             7    6     1       0.3163451881E+00       7    6    1         0.1743595561E+02      0.1744375012E+02
          0                 3           2             7    6     1      -0.1815972753E-01       7    6    1        -0.1010606242E+01      0.1031602490E+01
          0                 4           2             7    6     1      -0.3204126625E-02       7    6    1        -0.1781483252E+00      0.1954201938E+00
          0                 5           2             7    6     1      -0.5660732031E-03       7    6    1        -0.3144714236E-01      0.4742022073E-01
          0                 6           2             8    3     1       0.1261787629E-03       7    6    1        -0.5558008417E-02      0.1681804546E-01
          0                 7           1             8    3     1       0.5662095960E-04       8    3    1         0.1472382620E-02      0.7173495355E-02
          0                 8           1             8    3     1       0.2540745980E-04       8    3    1         0.6607092354E-03      0.3186271093E-02
          0                 9           1             8    3     1       0.1140087984E-04       8    3    1         0.2964784528E-03      0.1424924329E-02
          0                10           1             8    3     1       0.5115741767E-05       8    3    1         0.1330359430E-03      0.6379542790E-03

    ------------------------------------------------
       NWT REQUIRED           10 OUTER ITERATIONS 
       AND A TOTAL OF         16 INNER ITERATIONS.
    ------------------------------------------------

 OUTPUT CONTROL FOR STRESS PERIOD    6   TIME STEP    5
    PRINT BUDGET
    SAVE BUDGET
 UBUDSV SAVING "         STORAGE" ON UNIT102 AT TIME STEP     5, STRESS PERIOD    6
 UBUDSV SAVING "   CONSTANT HEAD" ON UNIT102 AT TIME STEP     5, STRESS PERIOD    6
 UBUDSV SAVING "FLOW RIGHT FACE " ON UNIT102 AT TIME STEP     5, STRESS PERIOD    6
 UBUDSV SAVING "FLOW FRONT FACE " ON UNIT102 AT TIME STEP     5, STRESS PERIOD    6

  HEAD DEP BOUNDS   PERIOD    6   STEP     5
 BOUNDARY      1   LAYER   1   ROW    13   COL     1   RATE   -0.295315    
 BOUNDARY      2   LAYER   1   ROW    14   COL     9   RATE    0.283122    



 STREAM LISTING     PERIOD      6   STEP        5

 LAYER ROW COL. STREAM  RCH.  FLOW INTO     FLOW TO   FLOW OUT OF   OVRLND.     DIRECT     STREAM       STREAM     STREAM     STREAM   STREAMBED  STREAMBED
                SEG.NO.  NO.  STRM. RCH.    AQUIFER    STRM. RCH.    RUNOFF     PRECIP       ET          HEAD       DEPTH      WIDTH   CONDCTNC.   GRADIENT

   1    1    1     1     1    9.9000E+01  4.7281E-01   9.8527E+01  0.000E+00  0.000E+00  0.000E+00  1.09484E+03  1.796E+00  2.191E+01  9.859E-02  1.599E+00
   1    2    2     1     2    9.8527E+01  7.3365E-01   9.7794E+01  0.000E+00  0.000E+00  0.000E+00  1.08985E+03  1.793E+00  2.187E+01  1.531E-01  1.598E+00
   1    3    3     1     3    9.7794E+01  6.2707E-01   9.7166E+01  0.000E+00  0.000E+00  0.000E+00  1.08421E+03  1.791E+00  2.181E+01  1.309E-01  1.597E+00
   1    3    4     1     4    9.7166E+01  5.7859E-01   9.6588E+01  0.000E+00  0.000E+00  0.000E+00  1.07920E+03  1.789E+00  2.177E+01  1.208E-01  1.596E+00
   1    4    5     2     1    9.4588E+01  0.0000E+00   9.4588E+01  0.000E+00  0.000E+00  0.000E+00  1.07462E+03  2.683E+00  1.200E+01  0.000E+00  1.894E+00
   1    5    6     2     2    9.4588E+01  0.0000E+00   9.4588E+01  0.000E+00  0.000E+00  0.000E+00  1.06919E+03  2.683E+00  1.200E+01  0.000E+00  1.894E+00
   1    6    6     2     3    9.4588E+01  0.0000E+00   9.4588E+01  0.000E+00  0.000E+00  0.000E+00  1.06448E+03  2.683E+00  1.200E+01  0.000E+00  1.894E+00
   1    7    6     2     4    9.4588E+01  0.0000E+00   9.4588E+01  0.000E+00  0.000E+00  0.000E+00  1.05976E+03  2.683E+00  1.200E+01  0.000E+00  1.894E+00
   1    8    6     2     5    9.4588E+01  0.0000E+00   9.4588E+01  0.000E+00  0.000E+00  0.000E+00  1.05504E+03  2.683E+00  1.200E+01  0.000E+00  1.894E+00
   1    3    5     3     1    2.0000E+00  2.8252E-01   1.7175E+00  0.000E+00  0.000E+00  0.000E+00  1.07555E+03  1.909E+00  9.636E+00  7.227E-02  1.955E+00
   1    3    6     3     2    1.7175E+00  2.4905E-01   1.4684E+00  0.000E+00  0.000E+00  0.000E+00  1.07264E+03  1.727E+00  8.909E+00  6.682E-02  1.864E+00
   1    3    7     3     3    1.4684E+00  1.9718E-01   1.2712E+00  0.000E+00  0.000E+00  0.000E+00  1.06987E+03  1.555E+00  8.218E+00  5.547E-02  1.777E+00
   1    4    8     3     4    1.2712E+00  2.2567E-01   1.0456E+00  0.000E+00  0.000E+00  0.000E+00  1.06682E+03  1.364E+00  7.455E+00  6.709E-02  1.682E+00
   1    5    8     3     5    1.0456E+00  1.5790E-01   8.8768E-01  0.000E+00  0.000E+00  0.000E+00  1.06362E+03  1.164E+00  6.655E+00  4.991E-02  1.582E+00
   1    6    8     3     6    8.8768E-01  5.5980E-02   8.3170E-01  0.000E+00  0.000E+00  0.000E+00  1.06158E+03  1.036E+00  6.145E+00  1.844E-02  1.518E+00
   1    5   10     4     1    1.0000E+01  0.0000E+00   1.0000E+01  0.000E+00  0.000E+00  0.000E+00  1.07837E+03  6.385E-01  1.000E+01  0.000E+00  1.213E+00
   1    5    9     4     2    1.0000E+01  0.0000E+00   1.0000E+01  0.000E+00  0.000E+00  0.000E+00  1.07155E+03  6.385E-01  1.000E+01  0.000E+00  1.213E+00
   1    6    8     4     3    1.0000E+01  0.0000E+00   1.0000E+01  0.000E+00  0.000E+00  0.000E+00  1.06382E+03  6.385E-01  1.000E+01  0.000E+00  1.213E+00
   1    6    8     5     1    1.0832E+01  2.3262E-01   1.0599E+01  0.000E+00  0.000E+00  0.000E+00  1.05869E+03  6.881E-01  1.577E+01  6.307E-02  1.229E+00
   1    7    7     5     2    1.0599E+01  2.8607E-01   1.0313E+01  0.000E+00  0.000E+00  0.000E+00  1.05418E+03  6.822E-01  1.554E+01  7.769E-02  1.227E+00
   1    8    7     5     3    1.0313E+01  1.9716E-01   1.0116E+01  0.000E+00  0.000E+00  0.000E+00  1.04993E+03  6.766E-01  1.532E+01  5.363E-02  1.226E+00
   1    8    6     5     4    1.0116E+01  1.3929E-01   9.9766E+00  0.000E+00  0.000E+00  0.000E+00  1.04692E+03  6.727E-01  1.517E+01  3.792E-02  1.224E+00
   1    9    6     6     1    1.0456E+02  0.0000E+00   1.0456E+02  0.000E+00  0.000E+00  0.000E+00  1.04561E+03  2.881E+00  1.200E+01  0.000E+00  1.960E+00
   1   10    7     6     2    1.0456E+02  0.0000E+00   1.0456E+02  0.000E+00  0.000E+00  0.000E+00  1.04106E+03  2.881E+00  1.200E+01  0.000E+00  1.960E+00
   1   11    7     6     3    1.0456E+02  0.0000E+00   1.0456E+02  0.000E+00  0.000E+00  0.000E+00  1.03652E+03  2.881E+00  1.200E+01  0.000E+00  1.960E+00
   1   12    7     6     4    1.0456E+02  0.0000E+00   1.0456E+02  0.000E+00  0.000E+00  0.000E+00  1.03197E+03  2.881E+00  1.200E+01  0.000E+00  1.960E+00
   1   13    7     6     5    1.0456E+02  0.0000E+00   1.0456E+02  0.000E+00  0.000E+00  0.000E+00  1.02879E+03  2.881E+00  1.200E+01  0.000E+00  7.756E-01
   1   14    9     7     1    1.5000E+02  1.2971E+00   1.4870E+02  0.000E+00  0.000E+00  0.000E+00  1.03987E+03  2.288E+00  5.530E+01  5.593E-01  7.730E-01
   1   13    8     7     2    1.4870E+02  1.9675E+00   1.4674E+02  0.000E+00  0.000E+00  0.000E+00  1.03478E+03  2.279E+00  5.526E+01  6.148E-01  1.067E+00
   1   13    7     7     3    1.4674E+02  1.8007E+00   1.4493E+02  0.000E+00  0.000E+00  0.000E+00  1.02969E+03  2.269E+00  5.521E+01  5.584E-01  1.075E+00
   1   13    6     8     1    2.4950E+02  1.5921E+00   2.4791E+02  0.000E+00  0.000E+00  0.000E+00  1.02528E+03  3.405E+00  4.937E+01  5.031E-01  1.055E+00
   1   13    5     8     2    2.4791E+02  6.7773E-01   2.4723E+02  0.000E+00  0.000E+00  0.000E+00  1.01902E+03  3.399E+00  4.929E+01  5.023E-01  4.498E-01
   1   13    4     8     3    2.4723E+02 -5.4129E-01   2.4777E+02  0.000E+00  0.000E+00  0.000E+00  1.01277E+03  3.399E+00  4.928E+01  5.022E+00 -3.593E-02
   1   13    3     8     4    2.4777E+02 -2.3679E+00   2.5014E+02  0.000E+00  0.000E+00  0.000E+00  1.00653E+03  3.406E+00  4.939E+01  5.033E+00 -1.568E-01
   1   13    2     8     5    2.5014E+02 -1.6405E+00   2.5178E+02  0.000E+00  0.000E+00  0.000E+00  1.00029E+03  3.416E+00  4.954E+01  5.048E+00 -1.083E-01
   1   13    1     8     6    2.5178E+02 -1.4333E+00   2.5321E+02  0.000E+00  0.000E+00  0.000E+00  9.95299E+02  3.424E+00  4.965E+01  3.036E+00 -1.574E-01
   1    6    8     9     1    0.0000E+00  0.0000E+00   0.0000E+00  0.000E+00  0.000E+00  0.000E+00  1.07850E+03  0.000E+00  4.000E+00  0.000E+00  1.000E+00



 UBDSV3 SAVING "     NETRECHARGE" ON UNIT 100 AT TIME STEP     5, STRESS PERIOD   6
 UBDSV3 SAVING "    NETDISCHARGE" ON UNIT 101 AT TIME STEP     5, STRESS PERIOD   6
 UBDSV3 SAVING "           GW ET" ON UNIT  61 AT TIME STEP     5, STRESS PERIOD   6
 UBDSV3 SAVING "    UZF RECHARGE" ON UNIT  61 AT TIME STEP     5, STRESS PERIOD   6
 UBDSV3 SAVING " SURFACE LEAKAGE" ON UNIT  61 AT TIME STEP     5, STRESS PERIOD   6
 UBDSV3 SAVING "       HORT+DUNN" ON UNIT  61 AT TIME STEP     5, STRESS PERIOD   6
 UBDSV3 SAVING "  STORAGE CHANGE" ON UNIT  61 AT TIME STEP     5, STRESS PERIOD   6


UNSATURATED ZONE PACKAGE VOLUMETRIC BUDGET FOR  TIME STEP     5 STRESS PERIOD    6
  ------------------------------------------------------------------------------



     CUMULATIVE VOLUMES      L**3       RATES FOR THIS TIME STEP      L**3/T
     ------------------                 ------------------------

           IN:                                      IN:
           ---                                      ---
        INFILTRATION =    11507355.0000          INFILTRATION =           0.8475

          OUT:                                     OUT:
          ----                                     ----
              UZF ET =    52924558.1705                UZF ET =          28.5098
        UZF RECHARGE =   309681419.6448          UZF RECHARGE =          26.8634

            IN - OUT =  -351098622.8153              IN - OUT =         -54.5257

          STORAGE:                                 STORAGE:
          --------                                 --------
      STORAGE CHANGE =  -351096315.3296        STORAGE CHANGE =         -54.5217

 PERCENT DISCREPANCY IS DIFFERENCE BETWEEN IN-OUT MINUS CHANGE IN STORAGE
 DIVIDED BY THE AVERAGE OF IN AND OUT TIMES 100

 PERCENT DISCREPANCY =          -0.00     PERCENT DISCREPANCY =          -0.01






1
  VOLUMETRIC BUDGET FOR ENTIRE MODEL AT END OF TIME STEP    5, STRESS PERIOD   6
  ------------------------------------------------------------------------------

     CUMULATIVE VOLUMES      L**3       RATES FOR THIS TIME STEP      L**3/T
     ------------------                 ------------------------

           IN:                                      IN:
           ---                                      ---
             STORAGE =     3354869.7500               STORAGE =           0.0000
       CONSTANT HEAD =           0.0000         CONSTANT HEAD =           0.0000
               WELLS =           0.0000                 WELLS =           0.0000
     HEAD DEP BOUNDS =     3921415.7500       HEAD DEP BOUNDS =           0.2831
      STREAM LEAKAGE =   141109520.0000        STREAM LEAKAGE =          11.7707
        UZF RECHARGE =   309681376.0000          UZF RECHARGE =          26.8634
               GW ET =           0.0000                 GW ET =           0.0000
     SURFACE LEAKAGE =           0.0000       SURFACE LEAKAGE =           0.0000

            TOTAL IN =   458067200.0000              TOTAL IN =          38.9172

          OUT:                                     OUT:
          ----                                     ----
             STORAGE =   334046464.0000               STORAGE =          32.1463
       CONSTANT HEAD =           0.0000         CONSTANT HEAD =           0.0000
               WELLS =           0.0000                 WELLS =           0.0000
     HEAD DEP BOUNDS =     3945853.7500       HEAD DEP BOUNDS =           0.2953
      STREAM LEAKAGE =   116536872.0000        STREAM LEAKAGE =           5.9830
        UZF RECHARGE =           0.0000          UZF RECHARGE =           0.0000
               GW ET =     3511423.5000                 GW ET =           0.4904
     SURFACE LEAKAGE =           0.0000       SURFACE LEAKAGE =           0.0000

           TOTAL OUT =   458040608.0000             TOTAL OUT =          38.9151

            IN - OUT =       26592.0000              IN - OUT =       2.1210E-03

 PERCENT DISCREPANCY =           0.01     PERCENT DISCREPANCY =           0.01






         TIME SUMMARY AT END OF TIME STEP    5 IN STRESS PERIOD    6
                    SECONDS     MINUTES      HOURS       DAYS        YEARS
                    -----------------------------------------------------------
   TIME STEP LENGTH  87600.      1460.0      24.333      1.0139     2.77588E-03
 STRESS PERIOD TIME 4.38000E+05  7300.0      121.67      5.0694     1.38794E-02
         TOTAL TIME 1.35780E+07 2.26300E+05  3771.7      157.15     0.43026    
1
 
 SOLVING FOR HEAD 
                                                   Max.-Head-Change                         Max.-Flux-Residual
  Residual-Control   Outer-Iter.   Inner-Iter.     Column Row Layer    Maximum-Head-Change  Column Row Layer    Maximum-Flux-Residual          L2-NORM 
          0                 1           2             7    6     1      -0.2893837995E+00       7    6    1        -0.1578953265E+02      0.1598618577E+02
          0                 2           2             7    6     1       0.3163443921E+00       7    6    1         0.1743592132E+02      0.1744354740E+02
          0                 3           2             7    6     1      -0.1815835225E-01       7    6    1        -0.1010530909E+01      0.1031495177E+01
          0                 4           2             7    6     1      -0.3203878423E-02       7    6    1        -0.1781347277E+00      0.1953920069E+00
          0                 5           2             7    6     1      -0.5660284310E-03       7    6    1        -0.3144468869E-01      0.4740588769E-01
          0                 6           2             8    3     1       0.1259465568E-03       7    6    1        -0.5557565994E-02      0.1681060661E-01
          0                 7           1             8    3     1       0.5651644157E-04       8    3    1         0.1469671446E-02      0.7170002490E-02
          0                 8           1             8    3     1       0.2536042030E-04       8    3    1         0.6594889292E-03      0.3184674939E-02
          0                 9           1             8    3     1       0.1137971182E-04       8    3    1         0.2959292565E-03      0.1424199052E-02
          0                10           1             8    3     1       0.5106217664E-05       8    3    1         0.1327888079E-03      0.6376241871E-03

    ------------------------------------------------
       NWT REQUIRED           10 OUTER ITERATIONS 
       AND A TOTAL OF         16 INNER ITERATIONS.
    ------------------------------------------------

 NO OUTPUT CONTROL FOR STRESS PERIOD    6   TIME STEP    6
 
 SOLVING FOR HEAD 
                                                   Max.-Head-Change                         Max.-Flux-Residual
  Residual-Control   Outer-Iter.   Inner-Iter.     Column Row Layer    Maximum-Head-Change  Column Row Layer    Maximum-Flux-Residual          L2-NORM 
          0                 1           2             7    6     1      -0.2893784333E+00       7    6    1        -0.1578926304E+02      0.1597484826E+02
          0                 2           2             7    6     1       0.3163436054E+00       7    6    1         0.1743588756E+02      0.1744342881E+02
          0                 3           2             7    6     1      -0.1815699253E-01       7    6    1        -0.1010456444E+01      0.1031397930E+01
          0                 4           2             7    6     1      -0.3203632955E-02       7    6    1        -0.1781212827E+00      0.1953626735E+00
          0                 5           2             7    6     1      -0.5659841395E-03       7    6    1        -0.3144226179E-01      0.4739021870E-01
          0                 6           2             8    3     1       0.1257127423E-03       7    6    1        -0.5557128251E-02      0.1680240517E-01
          0                 7           1             8    3     1       0.5641122399E-04       8    3    1         0.1466941620E-02      0.7166152999E-02
          0                 8           1             8    3     1       0.2531307753E-04       8    3    1         0.6582605270E-03      0.3182919035E-02
          0                 9           1             8    3     1       0.1135841224E-04       8    3    1         0.2953765472E-03      0.1423402609E-02
          0                10           1             8    3     1       0.5096635784E-05       8    3    1         0.1325401480E-03      0.6372634209E-03

    ------------------------------------------------
       NWT REQUIRED           10 OUTER ITERATIONS 
       AND A TOTAL OF         16 INNER ITERATIONS.
    ------------------------------------------------

 NO OUTPUT CONTROL FOR STRESS PERIOD    6   TIME STEP    7
 
 SOLVING FOR HEAD 
                                                   Max.-Head-Change                         Max.-Flux-Residual
  Residual-Control   Outer-Iter.   Inner-Iter.     Column Row Layer    Maximum-Head-Change  Column Row Layer    Maximum-Flux-Residual          L2-NORM 
          0                 1           2             7    6     1      -0.2893729960E+00       7    6    1        -0.1578898950E+02      0.1596545715E+02
          0                 2           2             7    6     1       0.3163428150E+00       7    6    1         0.1743585362E+02      0.1744332410E+02
          0                 3           2             7    6     1      -0.1815561903E-01       7    6    1        -0.1010381214E+01      0.1031299824E+01
          0                 4           2             7    6     1      -0.3203385046E-02       7    6    1        -0.1781077022E+00      0.1953316440E+00
          0                 5           2             7    6     1      -0.5659394149E-03       7    6    1        -0.3143981090E-01      0.4737320989E-01
          0                 6           2             8    3     1       0.1254803949E-03       7    6    1        -0.5556686272E-02      0.1679345435E-01
          0                 7           1             8    3     1       0.5630666932E-04       8    3    1         0.1464228934E-02      0.7161952124E-02
          0                 8           1             8    3     1       0.2526603414E-04       8    3    1         0.6570398606E-03      0.3181005792E-02
          0                 9           1             8    3     1       0.1133724747E-04       8    3    1         0.2948273241E-03      0.1422536141E-02
          0                10           1             8    3     1       0.5087114807E-05       8    3    1         0.1322930620E-03      0.6368715681E-03

    ------------------------------------------------
       NWT REQUIRED           10 OUTER ITERATIONS 
       AND A TOTAL OF         16 INNER ITERATIONS.
    ------------------------------------------------

 NO OUTPUT CONTROL FOR STRESS PERIOD    6   TIME STEP    8
 
 SOLVING FOR HEAD 
                                                   Max.-Head-Change                         Max.-Flux-Residual
  Residual-Control   Outer-Iter.   Inner-Iter.     Column Row Layer    Maximum-Head-Change  Column Row Layer    Maximum-Flux-Residual          L2-NORM 
          0                 1           2             7    6     1      -0.2893676147E+00       7    6    1        -0.1578871881E+02      0.1595761831E+02
          0                 2           2             7    6     1       0.3163420331E+00       7    6    1         0.1743582019E+02      0.1744323029E+02
          0                 3           2             7    6     1      -0.1815426260E-01       7    6    1        -0.1010306930E+01      0.1031202653E+01
          0                 4           2             7    6     1      -0.3203140172E-02       7    6    1        -0.1780942897E+00      0.1952994667E+00
          0                 5           2             7    6     1      -0.5658952304E-03       7    6    1        -0.3143738988E-01      0.4735514865E-01
          0                 6           2             8    3     1       0.1253416354E-03       7    6    1        -0.5556249608E-02      0.1678392931E-01
          0                 7           1             8    3     1       0.5625225816E-04       8    3    1         0.1462646753E-02      0.7157497320E-02
          0                 8           1             8    3     1       0.2524516775E-04       8    3    1         0.6564216651E-03      0.3178984799E-02
          0                 9           1             8    3     1       0.1132948827E-04       8    3    1         0.2945913964E-03      0.1421624032E-02
          0                10           1             8    3     1       0.5084357208E-05       8    3    1         0.1322059275E-03      0.6364604198E-03

    ------------------------------------------------
       NWT REQUIRED           10 OUTER ITERATIONS 
       AND A TOTAL OF         16 INNER ITERATIONS.
    ------------------------------------------------

 NO OUTPUT CONTROL FOR STRESS PERIOD    6   TIME STEP    9
 
 SOLVING FOR HEAD 
                                                   Max.-Head-Change                         Max.-Flux-Residual
  Residual-Control   Outer-Iter.   Inner-Iter.     Column Row Layer    Maximum-Head-Change  Column Row Layer    Maximum-Flux-Residual          L2-NORM 
          0                 1           2             7    6     1      -0.2893624070E+00       7    6    1        -0.1578845752E+02      0.1595111711E+02
          0                 2           2             7    6     1       0.3163412716E+00       7    6    1         0.1743578794E+02      0.1744314787E+02
          0                 3           2             7    6     1      -0.1815295146E-01       7    6    1        -0.1010235161E+01      0.1031107898E+01
          0                 4           2             7    6     1      -0.3202903312E-02       7    6    1        -0.1780813220E+00      0.1952663492E+00
          0                 5           2             7    6     1      -0.5658524647E-03       7    6    1        -0.3143504758E-01      0.4733597262E-01
          0                 6           2             8    3     1       0.1251315552E-03       7    6    1        -0.5555826905E-02      0.1677373184E-01
          0                 7           1             8    3     1       0.5615765603E-04       8    3    1         0.1460193722E-02      0.7152715686E-02
          0                 8           1             8    3     1       0.2520257196E-04       8    3    1         0.6553170469E-03      0.3176810696E-02
          0                 9           1             8    3     1       0.1131031126E-04       8    3    1         0.2940940417E-03      0.1420641590E-02
          0                10           1             8    3     1       0.5075724876E-05       8    3    1         0.1319820210E-03      0.6360176793E-03

    ------------------------------------------------
       NWT REQUIRED           10 OUTER ITERATIONS 
       AND A TOTAL OF         16 INNER ITERATIONS.
    ------------------------------------------------

 OUTPUT CONTROL FOR STRESS PERIOD    6   TIME STEP   10
    PRINT BUDGET
    SAVE BUDGET
 UBUDSV SAVING "         STORAGE" ON UNIT102 AT TIME STEP    10, STRESS PERIOD    6
 UBUDSV SAVING "   CONSTANT HEAD" ON UNIT102 AT TIME STEP    10, STRESS PERIOD    6
 UBUDSV SAVING "FLOW RIGHT FACE " ON UNIT102 AT TIME STEP    10, STRESS PERIOD    6
 UBUDSV SAVING "FLOW FRONT FACE " ON UNIT102 AT TIME STEP    10, STRESS PERIOD    6

  HEAD DEP BOUNDS   PERIOD    6   STEP    10
 BOUNDARY      1   LAYER   1   ROW    13   COL     1   RATE   -0.296292    
 BOUNDARY      2   LAYER   1   ROW    14   COL     9   RATE    0.282994    



 STREAM LISTING     PERIOD      6   STEP       10

 LAYER ROW COL. STREAM  RCH.  FLOW INTO     FLOW TO   FLOW OUT OF   OVRLND.     DIRECT     STREAM       STREAM     STREAM     STREAM   STREAMBED  STREAMBED
                SEG.NO.  NO.  STRM. RCH.    AQUIFER    STRM. RCH.    RUNOFF     PRECIP       ET          HEAD       DEPTH      WIDTH   CONDCTNC.   GRADIENT

   1    1    1     1     1    9.9000E+01  4.7281E-01   9.8527E+01  0.000E+00  0.000E+00  0.000E+00  1.09484E+03  1.796E+00  2.191E+01  9.859E-02  1.599E+00
   1    2    2     1     2    9.8527E+01  7.3365E-01   9.7794E+01  0.000E+00  0.000E+00  0.000E+00  1.08985E+03  1.793E+00  2.187E+01  1.531E-01  1.598E+00
   1    3    3     1     3    9.7794E+01  6.2707E-01   9.7166E+01  0.000E+00  0.000E+00  0.000E+00  1.08421E+03  1.791E+00  2.181E+01  1.309E-01  1.597E+00
   1    3    4     1     4    9.7166E+01  5.7859E-01   9.6588E+01  0.000E+00  0.000E+00  0.000E+00  1.07920E+03  1.789E+00  2.177E+01  1.208E-01  1.596E+00
   1    4    5     2     1    9.4588E+01  0.0000E+00   9.4588E+01  0.000E+00  0.000E+00  0.000E+00  1.07462E+03  2.683E+00  1.200E+01  0.000E+00  1.894E+00
   1    5    6     2     2    9.4588E+01  0.0000E+00   9.4588E+01  0.000E+00  0.000E+00  0.000E+00  1.06919E+03  2.683E+00  1.200E+01  0.000E+00  1.894E+00
   1    6    6     2     3    9.4588E+01  0.0000E+00   9.4588E+01  0.000E+00  0.000E+00  0.000E+00  1.06448E+03  2.683E+00  1.200E+01  0.000E+00  1.894E+00
   1    7    6     2     4    9.4588E+01  0.0000E+00   9.4588E+01  0.000E+00  0.000E+00  0.000E+00  1.05976E+03  2.683E+00  1.200E+01  0.000E+00  1.894E+00
   1    8    6     2     5    9.4588E+01  0.0000E+00   9.4588E+01  0.000E+00  0.000E+00  0.000E+00  1.05504E+03  2.683E+00  1.200E+01  0.000E+00  1.894E+00
   1    3    5     3     1    2.0000E+00  2.8252E-01   1.7175E+00  0.000E+00  0.000E+00  0.000E+00  1.07555E+03  1.909E+00  9.636E+00  7.227E-02  1.955E+00
   1    3    6     3     2    1.7175E+00  2.4905E-01   1.4684E+00  0.000E+00  0.000E+00  0.000E+00  1.07264E+03  1.727E+00  8.909E+00  6.682E-02  1.864E+00
   1    3    7     3     3    1.4684E+00  1.9718E-01   1.2712E+00  0.000E+00  0.000E+00  0.000E+00  1.06987E+03  1.555E+00  8.218E+00  5.547E-02  1.777E+00
   1    4    8     3     4    1.2712E+00  2.2567E-01   1.0456E+00  0.000E+00  0.000E+00  0.000E+00  1.06682E+03  1.364E+00  7.455E+00  6.709E-02  1.682E+00
   1    5    8     3     5    1.0456E+00  1.5790E-01   8.8768E-01  0.000E+00  0.000E+00  0.000E+00  1.06362E+03  1.164E+00  6.655E+00  4.991E-02  1.582E+00
   1    6    8     3     6    8.8768E-01  5.5980E-02   8.3170E-01  0.000E+00  0.000E+00  0.000E+00  1.06158E+03  1.036E+00  6.145E+00  1.844E-02  1.518E+00
   1    5   10     4     1    1.0000E+01  0.0000E+00   1.0000E+01  0.000E+00  0.000E+00  0.000E+00  1.07837E+03  6.385E-01  1.000E+01  0.000E+00  1.213E+00
   1    5    9     4     2    1.0000E+01  0.0000E+00   1.0000E+01  0.000E+00  0.000E+00  0.000E+00  1.07155E+03  6.385E-01  1.000E+01  0.000E+00  1.213E+00
   1    6    8     4     3    1.0000E+01  0.0000E+00   1.0000E+01  0.000E+00  0.000E+00  0.000E+00  1.06382E+03  6.385E-01  1.000E+01  0.000E+00  1.213E+00
   1    6    8     5     1    1.0832E+01  2.3262E-01   1.0599E+01  0.000E+00  0.000E+00  0.000E+00  1.05869E+03  6.881E-01  1.577E+01  6.307E-02  1.229E+00
   1    7    7     5     2    1.0599E+01  2.8607E-01   1.0313E+01  0.000E+00  0.000E+00  0.000E+00  1.05418E+03  6.822E-01  1.554E+01  7.769E-02  1.227E+00
   1    8    7     5     3    1.0313E+01  1.9716E-01   1.0116E+01  0.000E+00  0.000E+00  0.000E+00  1.04993E+03  6.766E-01  1.532E+01  5.363E-02  1.226E+00
   1    8    6     5     4    1.0116E+01  1.3929E-01   9.9766E+00  0.000E+00  0.000E+00  0.000E+00  1.04692E+03  6.727E-01  1.517E+01  3.792E-02  1.224E+00
   1    9    6     6     1    1.0456E+02  0.0000E+00   1.0456E+02  0.000E+00  0.000E+00  0.000E+00  1.04561E+03  2.881E+00  1.200E+01  0.000E+00  1.960E+00
   1   10    7     6     2    1.0456E+02  0.0000E+00   1.0456E+02  0.000E+00  0.000E+00  0.000E+00  1.04106E+03  2.881E+00  1.200E+01  0.000E+00  1.960E+00
   1   11    7     6     3    1.0456E+02  0.0000E+00   1.0456E+02  0.000E+00  0.000E+00  0.000E+00  1.03652E+03  2.881E+00  1.200E+01  0.000E+00  1.960E+00
   1   12    7     6     4    1.0456E+02  0.0000E+00   1.0456E+02  0.000E+00  0.000E+00  0.000E+00  1.03197E+03  2.881E+00  1.200E+01  0.000E+00  1.960E+00
   1   13    7     6     5    1.0456E+02  0.0000E+00   1.0456E+02  0.000E+00  0.000E+00  0.000E+00  1.02879E+03  2.881E+00  1.200E+01  0.000E+00  7.734E-01
   1   14    9     7     1    1.5000E+02  1.2952E+00   1.4870E+02  0.000E+00  0.000E+00  0.000E+00  1.03987E+03  2.288E+00  5.530E+01  5.593E-01  7.719E-01
   1   13    8     7     2    1.4870E+02  1.9647E+00   1.4674E+02  0.000E+00  0.000E+00  0.000E+00  1.03478E+03  2.279E+00  5.526E+01  6.148E-01  1.065E+00
   1   13    7     7     3    1.4674E+02  1.7970E+00   1.4494E+02  0.000E+00  0.000E+00  0.000E+00  1.02969E+03  2.269E+00  5.521E+01  5.584E-01  1.073E+00
   1   13    6     8     1    2.4951E+02  1.5775E+00   2.4793E+02  0.000E+00  0.000E+00  0.000E+00  1.02528E+03  3.405E+00  4.937E+01  5.031E-01  1.045E+00
   1   13    5     8     2    2.4793E+02  6.6396E-01   2.4727E+02  0.000E+00  0.000E+00  0.000E+00  1.01902E+03  3.399E+00  4.929E+01  5.023E-01  4.406E-01
   1   13    4     8     3    2.4727E+02 -7.8423E-01   2.4805E+02  0.000E+00  0.000E+00  0.000E+00  1.01277E+03  3.400E+00  4.929E+01  5.023E+00 -5.204E-02
   1   13    3     8     4    2.4805E+02 -2.6159E+00   2.5067E+02  0.000E+00  0.000E+00  0.000E+00  1.00653E+03  3.408E+00  4.942E+01  5.036E+00 -1.731E-01
   1   13    2     8     5    2.5067E+02 -1.9670E+00   2.5263E+02  0.000E+00  0.000E+00  0.000E+00  1.00029E+03  3.420E+00  4.959E+01  5.053E+00 -1.297E-01
   1   13    1     8     6    2.5263E+02 -1.4996E+00   2.5413E+02  0.000E+00  0.000E+00  0.000E+00  9.95304E+02  3.429E+00  4.972E+01  3.040E+00 -1.644E-01
   1    6    8     9     1    0.0000E+00  0.0000E+00   0.0000E+00  0.000E+00  0.000E+00  0.000E+00  1.07850E+03  0.000E+00  4.000E+00  0.000E+00  1.000E+00



 UBDSV3 SAVING "     NETRECHARGE" ON UNIT 100 AT TIME STEP    10, STRESS PERIOD   6
 UBDSV3 SAVING "    NETDISCHARGE" ON UNIT 101 AT TIME STEP    10, STRESS PERIOD   6
 UBDSV3 SAVING "           GW ET" ON UNIT  61 AT TIME STEP    10, STRESS PERIOD   6
 UBDSV3 SAVING "    UZF RECHARGE" ON UNIT  61 AT TIME STEP    10, STRESS PERIOD   6
 UBDSV3 SAVING " SURFACE LEAKAGE" ON UNIT  61 AT TIME STEP    10, STRESS PERIOD   6
 UBDSV3 SAVING "       HORT+DUNN" ON UNIT  61 AT TIME STEP    10, STRESS PERIOD   6
 UBDSV3 SAVING "  STORAGE CHANGE" ON UNIT  61 AT TIME STEP    10, STRESS PERIOD   6


UNSATURATED ZONE PACKAGE VOLUMETRIC BUDGET FOR  TIME STEP    10 STRESS PERIOD    6
  ------------------------------------------------------------------------------



     CUMULATIVE VOLUMES      L**3       RATES FOR THIS TIME STEP      L**3/T
     ------------------                 ------------------------

           IN:                                      IN:
           ---                                      ---
        INFILTRATION =    11878560.0000          INFILTRATION =           0.8475

          OUT:                                     OUT:
          ----                                     ----
              UZF ET =    65303635.4986                UZF ET =          28.2626
        UZF RECHARGE =   321404518.2698          UZF RECHARGE =          26.7122

            IN - OUT =  -374829593.7683              IN - OUT =         -54.1273

          STORAGE:                                 STORAGE:
          --------                                 --------
      STORAGE CHANGE =  -374825881.3508        STORAGE CHANGE =         -54.1246

 PERCENT DISCREPANCY IS DIFFERENCE BETWEEN IN-OUT MINUS CHANGE IN STORAGE
 DIVIDED BY THE AVERAGE OF IN AND OUT TIMES 100

 PERCENT DISCREPANCY =          -0.00     PERCENT DISCREPANCY =          -0.00






1
  VOLUMETRIC BUDGET FOR ENTIRE MODEL AT END OF TIME STEP   10, STRESS PERIOD   6
  ------------------------------------------------------------------------------

     CUMULATIVE VOLUMES      L**3       RATES FOR THIS TIME STEP      L**3/T
     ------------------                 ------------------------

           IN:                                      IN:
           ---                                      ---
             STORAGE =     3354869.7500               STORAGE =           0.0000
       CONSTANT HEAD =           0.0000         CONSTANT HEAD =           0.0000
               WELLS =           0.0000                 WELLS =           0.0000
     HEAD DEP BOUNDS =     4045388.5000       HEAD DEP BOUNDS =           0.2830
      STREAM LEAKAGE =   146255280.0000        STREAM LEAKAGE =          11.7339
        UZF RECHARGE =   321404512.0000          UZF RECHARGE =          26.7122
               GW ET =           0.0000                 GW ET =           0.0000
     SURFACE LEAKAGE =           0.0000       SURFACE LEAKAGE =           0.0000

            TOTAL IN =   475060032.0000              TOTAL IN =          38.7291

          OUT:                                     OUT:
          ----                                     ----
             STORAGE =   347718752.0000               STORAGE =          30.8264
       CONSTANT HEAD =           0.0000         CONSTANT HEAD =           0.0000
               WELLS =           0.0000                 WELLS =           0.0000
     HEAD DEP BOUNDS =     4075464.2500       HEAD DEP BOUNDS =           0.2963
      STREAM LEAKAGE =   119403824.0000        STREAM LEAKAGE =           6.8667
        UZF RECHARGE =           0.0000          UZF RECHARGE =           0.0000
               GW ET =     3834448.7500                 GW ET =           0.7375
     SURFACE LEAKAGE =           0.0000       SURFACE LEAKAGE =           0.0000

           TOTAL OUT =   475032480.0000             TOTAL OUT =          38.7270

            IN - OUT =       27552.0000              IN - OUT =       2.1210E-03

 PERCENT DISCREPANCY =           0.01     PERCENT DISCREPANCY =           0.01






         TIME SUMMARY AT END OF TIME STEP   10 IN STRESS PERIOD    6
                    SECONDS     MINUTES      HOURS       DAYS        YEARS
                    -----------------------------------------------------------
   TIME STEP LENGTH  87600.      1460.0      24.333      1.0139     2.77588E-03
 STRESS PERIOD TIME 8.76000E+05  14600.      243.33      10.139     2.77588E-02
         TOTAL TIME 1.40160E+07 2.33600E+05  3893.3      162.22     0.44414    
1
 
 SOLVING FOR HEAD 
                                                   Max.-Head-Change                         Max.-Flux-Residual
  Residual-Control   Outer-Iter.   Inner-Iter.     Column Row Layer    Maximum-Head-Change  Column Row Layer    Maximum-Flux-Residual          L2-NORM 
          0                 1           2             7    6     1      -0.2893571254E+00       7    6    1        -0.1578819221E+02      0.1594565769E+02
          0                 2           2             7    6     1       0.3163405066E+00       7    6    1         0.1743575549E+02      0.1744307237E+02
          0                 3           2             7    6     1      -0.1815162574E-01       7    6    1        -0.1010162585E+01      0.1031012023E+01
          0                 4           2             7    6     1      -0.3202663858E-02       7    6    1        -0.1780682109E+00      0.1952319810E+00
          0                 5           2             7    6     1      -0.5658092375E-03       7    6    1        -0.3143267977E-01      0.4731584091E-01
          0                 6           2             8    3     1       0.1249236271E-03       7    6    1        -0.5555399655E-02      0.1676300795E-01
          0                 7           1             8    3     1       0.5606402246E-04       8    3    1         0.1457765813E-02      0.7147690480E-02
          0                 8           1             8    3     1       0.2516041275E-04       8    3    1         0.6542237495E-03      0.3174528986E-02
          0                 9           1             8    3     1       0.1129133058E-04       8    3    1         0.2936017826E-03      0.1419611966E-02
          0                10           1             8    3     1       0.5067180957E-05       8    3    1         0.1317604112E-03      0.6355527330E-03

    ------------------------------------------------
       NWT REQUIRED           10 OUTER ITERATIONS 
       AND A TOTAL OF         16 INNER ITERATIONS.
    ------------------------------------------------

 NO OUTPUT CONTROL FOR STRESS PERIOD    6   TIME STEP   11
 
 SOLVING FOR HEAD 
                                                   Max.-Head-Change                         Max.-Flux-Residual
  Residual-Control   Outer-Iter.   Inner-Iter.     Column Row Layer    Maximum-Head-Change  Column Row Layer    Maximum-Flux-Residual          L2-NORM 
          0                 1           2             7    6     1      -0.2893518968E+00       7    6    1        -0.1578792959E+02      0.1594106542E+02
          0                 2           2             7    6     1       0.3163397494E+00       7    6    1         0.1743572353E+02      0.1744300293E+02
          0                 3           2             7    6     1      -0.1815031616E-01       7    6    1        -0.1010090902E+01      0.1030916347E+01
          0                 4           2             7    6     1      -0.3202427276E-02       7    6    1        -0.1780552585E+00      0.1951965423E+00
          0                 5           2             7    6     1      -0.5657665222E-03       7    6    1        -0.3143034023E-01      0.4729472814E-01
          0                 6           2             8    3     1       0.1247154689E-03       7    6    1        -0.5554977413E-02      0.1675172185E-01
          0                 7           1             8    3     1       0.5597030010E-04       8    3    1         0.1455335285E-02      0.7142402414E-02
          0                 8           1             8    3     1       0.2511821964E-04       8    3    1         0.6531294416E-03      0.3172131303E-02
          0                 9           1             8    3     1       0.1127233802E-04       8    3    1         0.2931091473E-03      0.1418532851E-02
          0                10           1             8    3     1       0.5058632287E-05       8    3    1         0.1315386595E-03      0.6350652895E-03

    ------------------------------------------------
       NWT REQUIRED           10 OUTER ITERATIONS 
       AND A TOTAL OF         16 INNER ITERATIONS.
    ------------------------------------------------

 NO OUTPUT CONTROL FOR STRESS PERIOD    6   TIME STEP   12
 
 SOLVING FOR HEAD 
                                                   Max.-Head-Change                         Max.-Flux-Residual
  Residual-Control   Outer-Iter.   Inner-Iter.     Column Row Layer    Maximum-Head-Change  Column Row Layer    Maximum-Flux-Residual          L2-NORM 
          0                 1           2             7    6     1      -0.2893467196E+00       7    6    1        -0.1578766975E+02      0.1593718220E+02
          0                 2           2             7    6     1       0.3163390005E+00       7    6    1         0.1743569206E+02      0.1744293813E+02
          0                 3           2             7    6     1      -0.1814902201E-01       7    6    1        -0.1010020078E+01      0.1030821288E+01
          0                 4           2             7    6     1      -0.3202193419E-02       7    6    1        -0.1780424577E+00      0.1951603620E+00
          0                 5           2             7    6     1      -0.5657242875E-03       7    6    1        -0.3142802742E-01      0.4727288624E-01
          0                 6           2             8    3     1       0.1245055645E-03       7    6    1        -0.5554559907E-02      0.1674001908E-01
          0                 7           1             8    3     1       0.5587581228E-04       8    3    1         0.1452884472E-02      0.7136920036E-02
          0                 8           1             8    3     1       0.2507569076E-04       8    3    1         0.6520262311E-03      0.3169644076E-02
          0                 9           1             8    3     1       0.1125319815E-04       8    3    1         0.2926126033E-03      0.1417408984E-02
          0                10           1             8    3     1       0.5050019213E-05       8    3    1         0.1313151917E-03      0.6345607818E-03

    ------------------------------------------------
       NWT REQUIRED           10 OUTER ITERATIONS 
       AND A TOTAL OF         16 INNER ITERATIONS.
    ------------------------------------------------

 NO OUTPUT CONTROL FOR STRESS PERIOD    6   TIME STEP   13
 
 SOLVING FOR HEAD 
                                                   Max.-Head-Change                         Max.-Flux-Residual
  Residual-Control   Outer-Iter.   Inner-Iter.     Column Row Layer    Maximum-Head-Change  Column Row Layer    Maximum-Flux-Residual          L2-NORM 
          0                 1           2             7    6     1      -0.2893414760E+00       7    6    1        -0.1578740610E+02      0.1593387332E+02
          0                 2           2             7    6     1       0.3163382474E+00       7    6    1         0.1743566039E+02      0.1744287774E+02
          0                 3           2             7    6     1      -0.1814771500E-01       7    6    1        -0.1009948536E+01      0.1030725121E+01
          0                 4           2             7    6     1      -0.3201957298E-02       7    6    1        -0.1780295307E+00      0.1951231152E+00
          0                 5           2             7    6     1      -0.5656816536E-03       7    6    1        -0.3142569243E-01      0.4725023777E-01
          0                 6           2             8    3     1       0.1242971536E-03       7    6    1        -0.5554138487E-02      0.1672787072E-01
          0                 7           1             8    3     1       0.5578200600E-04       8    3    1         0.1450451143E-02      0.7131231023E-02
          0                 8           1             8    3     1       0.2503347326E-04       8    3    1         0.6509310134E-03      0.3167066225E-02
          0                 9           1             8    3     1       0.1123420009E-04       8    3    1         0.2921197120E-03      0.1416249397E-02
          0                10           1             8    3     1       0.5041471168E-05       8    3    1         0.1310933982E-03      0.6340425760E-03

    ------------------------------------------------
       NWT REQUIRED           10 OUTER ITERATIONS 
       AND A TOTAL OF         16 INNER ITERATIONS.
    ------------------------------------------------

 NO OUTPUT CONTROL FOR STRESS PERIOD    6   TIME STEP   14
 
 SOLVING FOR HEAD 
                                                   Max.-Head-Change                         Max.-Flux-Residual
  Residual-Control   Outer-Iter.   Inner-Iter.     Column Row Layer    Maximum-Head-Change  Column Row Layer    Maximum-Flux-Residual          L2-NORM 
          0                 1           2             7    6     1      -0.2893364068E+00       7    6    1        -0.1578715203E+02      0.1593104766E+02
          0                 2           2             7    6     1       0.3163375152E+00       7    6    1         0.1743562988E+02      0.1744282147E+02
          0                 3           2             7    6     1      -0.1814645294E-01       7    6    1        -0.1009879495E+01      0.1030630959E+01
          0                 4           2             7    6     1      -0.3201729112E-02       7    6    1        -0.1780170449E+00      0.1950854466E+00
          0                 5           2             7    6     1      -0.5656404220E-03       7    6    1        -0.3142343531E-01      0.4722695285E-01
          0                 6           2             8    3     1       0.1240871492E-03       7    6    1        -0.5553730835E-02      0.1671534006E-01
          0                 7           1             8    3     1       0.5568750492E-04       8    3    1         0.1447999309E-02      0.7125362720E-02
          0                 8           1             8    3     1       0.2499095276E-04       8    3    1         0.6498277165E-03      0.3164408744E-02
          0                 9           1             8    3     1       0.1121506960E-04       8    3    1         0.2916232879E-03      0.1415050589E-02
          0                10           1             8    3     1       0.5032864847E-05       8    3    1         0.1308700600E-03      0.6334997427E-03

    ------------------------------------------------
       NWT REQUIRED           10 OUTER ITERATIONS 
       AND A TOTAL OF         16 INNER ITERATIONS.
    ------------------------------------------------

 OUTPUT CONTROL FOR STRESS PERIOD    6   TIME STEP   15
    PRINT BUDGET
    PRINT HEAD FOR ALL LAYERS
    SAVE HEAD FOR ALL LAYERS
    SAVE BUDGET
 UBUDSV SAVING "         STORAGE" ON UNIT102 AT TIME STEP    15, STRESS PERIOD    6
 UBUDSV SAVING "   CONSTANT HEAD" ON UNIT102 AT TIME STEP    15, STRESS PERIOD    6
 UBUDSV SAVING "FLOW RIGHT FACE " ON UNIT102 AT TIME STEP    15, STRESS PERIOD    6
 UBUDSV SAVING "FLOW FRONT FACE " ON UNIT102 AT TIME STEP    15, STRESS PERIOD    6

  HEAD DEP BOUNDS   PERIOD    6   STEP    15
 BOUNDARY      1   LAYER   1   ROW    13   COL     1   RATE   -0.297100    
 BOUNDARY      2   LAYER   1   ROW    14   COL     9   RATE    0.282883    



 STREAM LISTING     PERIOD      6   STEP       15

 LAYER ROW COL. STREAM  RCH.  FLOW INTO     FLOW TO   FLOW OUT OF   OVRLND.     DIRECT     STREAM       STREAM     STREAM     STREAM   STREAMBED  STREAMBED
                SEG.NO.  NO.  STRM. RCH.    AQUIFER    STRM. RCH.    RUNOFF     PRECIP       ET          HEAD       DEPTH      WIDTH   CONDCTNC.   GRADIENT

   1    1    1     1     1    9.9000E+01  4.7281E-01   9.8527E+01  0.000E+00  0.000E+00  0.000E+00  1.09484E+03  1.796E+00  2.191E+01  9.859E-02  1.599E+00
   1    2    2     1     2    9.8527E+01  7.3365E-01   9.7794E+01  0.000E+00  0.000E+00  0.000E+00  1.08985E+03  1.793E+00  2.187E+01  1.531E-01  1.598E+00
   1    3    3     1     3    9.7794E+01  6.2707E-01   9.7166E+01  0.000E+00  0.000E+00  0.000E+00  1.08421E+03  1.791E+00  2.181E+01  1.309E-01  1.597E+00
   1    3    4     1     4    9.7166E+01  5.7859E-01   9.6588E+01  0.000E+00  0.000E+00  0.000E+00  1.07920E+03  1.789E+00  2.177E+01  1.208E-01  1.596E+00
   1    4    5     2     1    9.4588E+01  0.0000E+00   9.4588E+01  0.000E+00  0.000E+00  0.000E+00  1.07462E+03  2.683E+00  1.200E+01  0.000E+00  1.894E+00
   1    5    6     2     2    9.4588E+01  0.0000E+00   9.4588E+01  0.000E+00  0.000E+00  0.000E+00  1.06919E+03  2.683E+00  1.200E+01  0.000E+00  1.894E+00
   1    6    6     2     3    9.4588E+01  0.0000E+00   9.4588E+01  0.000E+00  0.000E+00  0.000E+00  1.06448E+03  2.683E+00  1.200E+01  0.000E+00  1.894E+00
   1    7    6     2     4    9.4588E+01  0.0000E+00   9.4588E+01  0.000E+00  0.000E+00  0.000E+00  1.05976E+03  2.683E+00  1.200E+01  0.000E+00  1.894E+00
   1    8    6     2     5    9.4588E+01  0.0000E+00   9.4588E+01  0.000E+00  0.000E+00  0.000E+00  1.05504E+03  2.683E+00  1.200E+01  0.000E+00  1.894E+00
   1    3    5     3     1    2.0000E+00  2.8252E-01   1.7175E+00  0.000E+00  0.000E+00  0.000E+00  1.07555E+03  1.909E+00  9.636E+00  7.227E-02  1.955E+00
   1    3    6     3     2    1.7175E+00  2.4905E-01   1.4684E+00  0.000E+00  0.000E+00  0.000E+00  1.07264E+03  1.727E+00  8.909E+00  6.682E-02  1.864E+00
   1    3    7     3     3    1.4684E+00  1.9718E-01   1.2712E+00  0.000E+00  0.000E+00  0.000E+00  1.06987E+03  1.555E+00  8.218E+00  5.547E-02  1.777E+00
   1    4    8     3     4    1.2712E+00  2.2567E-01   1.0456E+00  0.000E+00  0.000E+00  0.000E+00  1.06682E+03  1.364E+00  7.455E+00  6.709E-02  1.682E+00
   1    5    8     3     5    1.0456E+00  1.5790E-01   8.8768E-01  0.000E+00  0.000E+00  0.000E+00  1.06362E+03  1.164E+00  6.655E+00  4.991E-02  1.582E+00
   1    6    8     3     6    8.8768E-01  5.5980E-02   8.3170E-01  0.000E+00  0.000E+00  0.000E+00  1.06158E+03  1.036E+00  6.145E+00  1.844E-02  1.518E+00
   1    5   10     4     1    1.0000E+01  0.0000E+00   1.0000E+01  0.000E+00  0.000E+00  0.000E+00  1.07837E+03  6.385E-01  1.000E+01  0.000E+00  1.213E+00
   1    5    9     4     2    1.0000E+01  0.0000E+00   1.0000E+01  0.000E+00  0.000E+00  0.000E+00  1.07155E+03  6.385E-01  1.000E+01  0.000E+00  1.213E+00
   1    6    8     4     3    1.0000E+01  0.0000E+00   1.0000E+01  0.000E+00  0.000E+00  0.000E+00  1.06382E+03  6.385E-01  1.000E+01  0.000E+00  1.213E+00
   1    6    8     5     1    1.0832E+01  2.3262E-01   1.0599E+01  0.000E+00  0.000E+00  0.000E+00  1.05869E+03  6.881E-01  1.577E+01  6.307E-02  1.229E+00
   1    7    7     5     2    1.0599E+01  2.8607E-01   1.0313E+01  0.000E+00  0.000E+00  0.000E+00  1.05418E+03  6.822E-01  1.554E+01  7.769E-02  1.227E+00
   1    8    7     5     3    1.0313E+01  1.9716E-01   1.0116E+01  0.000E+00  0.000E+00  0.000E+00  1.04993E+03  6.766E-01  1.532E+01  5.363E-02  1.226E+00
   1    8    6     5     4    1.0116E+01  1.3929E-01   9.9766E+00  0.000E+00  0.000E+00  0.000E+00  1.04692E+03  6.727E-01  1.517E+01  3.792E-02  1.224E+00
   1    9    6     6     1    1.0456E+02  0.0000E+00   1.0456E+02  0.000E+00  0.000E+00  0.000E+00  1.04561E+03  2.881E+00  1.200E+01  0.000E+00  1.960E+00
   1   10    7     6     2    1.0456E+02  0.0000E+00   1.0456E+02  0.000E+00  0.000E+00  0.000E+00  1.04106E+03  2.881E+00  1.200E+01  0.000E+00  1.960E+00
   1   11    7     6     3    1.0456E+02  0.0000E+00   1.0456E+02  0.000E+00  0.000E+00  0.000E+00  1.03652E+03  2.881E+00  1.200E+01  0.000E+00  1.960E+00
   1   12    7     6     4    1.0456E+02  0.0000E+00   1.0456E+02  0.000E+00  0.000E+00  0.000E+00  1.03197E+03  2.881E+00  1.200E+01  0.000E+00  1.960E+00
   1   13    7     6     5    1.0456E+02  0.0000E+00   1.0456E+02  0.000E+00  0.000E+00  0.000E+00  1.02879E+03  2.881E+00  1.200E+01  0.000E+00  7.711E-01
   1   14    9     7     1    1.5000E+02  1.2936E+00   1.4871E+02  0.000E+00  0.000E+00  0.000E+00  1.03987E+03  2.288E+00  5.530E+01  5.593E-01  7.709E-01
   1   13    8     7     2    1.4871E+02  1.9619E+00   1.4674E+02  0.000E+00  0.000E+00  0.000E+00  1.03478E+03  2.279E+00  5.526E+01  6.148E-01  1.064E+00
   1   13    7     7     3    1.4674E+02  1.7932E+00   1.4495E+02  0.000E+00  0.000E+00  0.000E+00  1.02969E+03  2.269E+00  5.521E+01  5.584E-01  1.070E+00
   1   13    6     8     1    2.4952E+02  1.5651E+00   2.4795E+02  0.000E+00  0.000E+00  0.000E+00  1.02528E+03  3.405E+00  4.937E+01  5.031E-01  1.037E+00
   1   13    5     8     2    2.4795E+02  6.5108E-01   2.4730E+02  0.000E+00  0.000E+00  0.000E+00  1.01902E+03  3.399E+00  4.929E+01  5.023E-01  4.321E-01
   1   13    4     8     3    2.4730E+02 -9.3784E-01   2.4824E+02  0.000E+00  0.000E+00  0.000E+00  1.01278E+03  3.400E+00  4.930E+01  5.024E+00 -6.222E-02
   1   13    3     8     4    2.4824E+02 -2.7776E+00   2.5101E+02  0.000E+00  0.000E+00  0.000E+00  1.00653E+03  3.410E+00  4.944E+01  5.038E+00 -1.838E-01
   1   13    2     8     5    2.5101E+02 -2.1597E+00   2.5317E+02  0.000E+00  0.000E+00  0.000E+00  1.00030E+03  3.422E+00  4.962E+01  5.057E+00 -1.424E-01
   1   13    1     8     6    2.5317E+02 -1.5568E+00   2.5473E+02  0.000E+00  0.000E+00  0.000E+00  9.95307E+02  3.432E+00  4.976E+01  3.042E+00 -1.706E-01
   1    6    8     9     1    0.0000E+00  0.0000E+00   0.0000E+00  0.000E+00  0.000E+00  0.000E+00  1.07850E+03  0.000E+00  4.000E+00  0.000E+00  1.000E+00



 UBDSV3 SAVING "     NETRECHARGE" ON UNIT 100 AT TIME STEP    15, STRESS PERIOD   6
 UBDSV3 SAVING "    NETDISCHARGE" ON UNIT 101 AT TIME STEP    15, STRESS PERIOD   6
 UBDSV3 SAVING "           GW ET" ON UNIT  61 AT TIME STEP    15, STRESS PERIOD   6
 UBDSV3 SAVING "    UZF RECHARGE" ON UNIT  61 AT TIME STEP    15, STRESS PERIOD   6
 UBDSV3 SAVING " SURFACE LEAKAGE" ON UNIT  61 AT TIME STEP    15, STRESS PERIOD   6
 UBDSV3 SAVING "       HORT+DUNN" ON UNIT  61 AT TIME STEP    15, STRESS PERIOD   6
 UBDSV3 SAVING "  STORAGE CHANGE" ON UNIT  61 AT TIME STEP    15, STRESS PERIOD   6


UNSATURATED ZONE PACKAGE VOLUMETRIC BUDGET FOR  TIME STEP    15 STRESS PERIOD    6
  ------------------------------------------------------------------------------



     CUMULATIVE VOLUMES      L**3       RATES FOR THIS TIME STEP      L**3/T
     ------------------                 ------------------------

           IN:                                      IN:
           ---                                      ---
        INFILTRATION =    12249765.0000          INFILTRATION =           0.8475

          OUT:                                     OUT:
          ----                                     ----
              UZF ET =    77682595.7642                UZF ET =          28.2625
        UZF RECHARGE =   333075184.1563          UZF RECHARGE =          26.6051

            IN - OUT =  -398508014.9205              IN - OUT =         -54.0201

          STORAGE:                                 STORAGE:
          --------                                 --------
      STORAGE CHANGE =  -398503327.2493        STORAGE CHANGE =         -54.0182

 PERCENT DISCREPANCY IS DIFFERENCE BETWEEN IN-OUT MINUS CHANGE IN STORAGE
 DIVIDED BY THE AVERAGE OF IN AND OUT TIMES 100

 PERCENT DISCREPANCY =          -0.00     PERCENT DISCREPANCY =          -0.00






1
              HEAD IN LAYER   1 AT END OF TIME STEP    15 IN STRESS PERIOD    6
  -----------------------------------------------------------------------------

           1       2       3       4       5       6       7       8       9      10
 ...................................................................................
   1  1022.19 1021.42 6999.00 6999.00 6999.00 6999.00 6999.00 6999.00 6999.00 6999.00
   2  1022.17 1022.02 1021.49 6999.00 6999.00 1022.64 1022.72 1022.66 6999.00 6999.00
   3  6999.00 1021.84 1021.71 1021.65 1022.12 1022.56 1022.83 1022.57 6999.00 6999.00
   4  1022.20 1021.80 1021.44 1021.12 1021.06 1021.12 1021.66 1022.56 1022.08 6999.00
   5  1022.11 1021.64 1021.19 1020.82 1020.81 1020.89 1021.05 1021.31 1021.26 1021.20
   6  1021.97 1021.43 1020.96 1020.60 1020.61 1020.74 1020.97 1021.28 1021.63 1022.04
   7  1021.80 1021.08 1020.66 1020.33 1020.40 1020.60 1020.95 1021.13 1022.02 6999.00
   8  6999.00 1020.45 1020.20 1019.98 1020.11 1020.42 1020.80 1021.51 1022.61 6999.00
   9  6999.00 1019.34 1019.38 1019.41 1019.68 1020.14 1020.63 1021.85 1023.48 6999.00
  10  6999.00 1017.55 1017.98 1018.56 1019.18 1020.01 1020.77 1022.45 1024.52 1025.18
  11  6999.00 1014.21 1015.29 1017.20 1018.58 1020.11 1021.49 1023.98 1026.71 6999.00
  12  1002.46 1007.87 1011.51 1015.01 1017.93 1020.69 1023.06 1027.29 1030.83 6999.00
  13   995.82 1000.72 1007.09 1012.96 1017.73 1022.17 1026.48 1031.59 1034.60 6999.00
  14  6999.00 1006.73 1009.58 1014.03 1018.45 1022.75 1027.70 1033.36 1037.56 6999.00
  15  6999.00 6999.00 1013.25 1015.83 1019.10 1021.98 6999.00 6999.00 6999.00 6999.00

 HEAD WILL BE SAVED ON UNIT   62 AT END OF TIME STEP   15, STRESS PERIOD    6
1
  VOLUMETRIC BUDGET FOR ENTIRE MODEL AT END OF TIME STEP   15, STRESS PERIOD   6
  ------------------------------------------------------------------------------

     CUMULATIVE VOLUMES      L**3       RATES FOR THIS TIME STEP      L**3/T
     ------------------                 ------------------------

           IN:                                      IN:
           ---                                      ---
             STORAGE =     3354869.7500               STORAGE =           0.0000
       CONSTANT HEAD =           0.0000         CONSTANT HEAD =           0.0000
               WELLS =           0.0000                 WELLS =           0.0000
     HEAD DEP BOUNDS =     4169310.2500       HEAD DEP BOUNDS =           0.2829
      STREAM LEAKAGE =   151385840.0000        STREAM LEAKAGE =          11.7005
        UZF RECHARGE =   333075200.0000          UZF RECHARGE =          26.6051
               GW ET =           0.0000                 GW ET =           0.0000
     SURFACE LEAKAGE =           0.0000       SURFACE LEAKAGE =           0.0000

            TOTAL IN =   491985216.0000              TOTAL IN =          38.5885

          OUT:                                     OUT:
          ----                                     ----
             STORAGE =   361025184.0000               STORAGE =          30.1198
       CONSTANT HEAD =           0.0000         CONSTANT HEAD =           0.0000
               WELLS =           0.0000                 WELLS =           0.0000
     HEAD DEP BOUNDS =     4205458.0000       HEAD DEP BOUNDS =           0.2971
      STREAM LEAKAGE =   122568584.0000        STREAM LEAKAGE =           7.4320
        UZF RECHARGE =           0.0000          UZF RECHARGE =           0.0000
               GW ET =     4157473.7500                 GW ET =           0.7375
     SURFACE LEAKAGE =           0.0000       SURFACE LEAKAGE =           0.0000

           TOTAL OUT =   491956704.0000             TOTAL OUT =          38.5864

            IN - OUT =       28512.0000              IN - OUT =       2.1095E-03

 PERCENT DISCREPANCY =           0.01     PERCENT DISCREPANCY =           0.01






         TIME SUMMARY AT END OF TIME STEP   15 IN STRESS PERIOD    6
                    SECONDS     MINUTES      HOURS       DAYS        YEARS
                    -----------------------------------------------------------
   TIME STEP LENGTH  87600.      1460.0      24.333      1.0139     2.77588E-03
 STRESS PERIOD TIME 1.31400E+06  21900.      365.00      15.208     4.16381E-02
         TOTAL TIME 1.44540E+07 2.40900E+05  4015.0      167.29     0.45802    
1
 
 SOLVING FOR HEAD 
                                                   Max.-Head-Change                         Max.-Flux-Residual
  Residual-Control   Outer-Iter.   Inner-Iter.     Column Row Layer    Maximum-Head-Change  Column Row Layer    Maximum-Flux-Residual          L2-NORM 
          0                 1           2             7    6     1      -0.2893313848E+00       7    6    1        -0.1578690042E+02      0.1592861628E+02
          0                 2           2             7    6     1       0.3163367904E+00       7    6    1         0.1743559983E+02      0.1744276803E+02
          0                 3           2             7    6     1      -0.1814520523E-01       7    6    1        -0.1009811251E+01      0.1030537056E+01
          0                 4           2             7    6     1      -0.3201503473E-02       7    6    1        -0.1780047001E+00      0.1950470924E+00
          0                 5           2             7    6     1      -0.5655996429E-03       7    6    1        -0.3142120326E-01      0.4720300685E-01
          0                 6           2             8    3     1       0.1238755029E-03       7    6    1        -0.5553327637E-02      0.1670242889E-01
          0                 7           1             8    3     1       0.5559227689E-04       8    3    1         0.1445528362E-02      0.7119317198E-02
          0                 8           1             8    3     1       0.2494810999E-04       8    3    1         0.6487159604E-03      0.3161671647E-02
          0                 9           1             8    3     1       0.1119579729E-04       8    3    1         0.2911231289E-03      0.1413818920E-02
          0                10           1             8    3     1       0.5024196123E-05       8    3    1         0.1306450654E-03      0.6329461315E-03

    ------------------------------------------------
       NWT REQUIRED           10 OUTER ITERATIONS 
       AND A TOTAL OF         16 INNER ITERATIONS.
    ------------------------------------------------

 NO OUTPUT CONTROL FOR STRESS PERIOD    6   TIME STEP   16
 
 SOLVING FOR HEAD 
                                                   Max.-Head-Change                         Max.-Flux-Residual
  Residual-Control   Outer-Iter.   Inner-Iter.     Column Row Layer    Maximum-Head-Change  Column Row Layer    Maximum-Flux-Residual          L2-NORM 
          0                 1           2             7    6     1      -0.2893262925E+00       7    6    1        -0.1578664479E+02      0.1592650337E+02
          0                 2           2             7    6     1       0.3163360610E+00       7    6    1         0.1743556956E+02      0.1744271635E+02
          0                 3           2             7    6     1      -0.1814394379E-01       7    6    1        -0.1009742240E+01      0.1030442030E+01
          0                 4           2             7    6     1      -0.3201275415E-02       7    6    1        -0.1779922207E+00      0.1950080111E+00
          0                 5           2             7    6     1      -0.5655584369E-03       7    6    1        -0.3141894748E-01      0.4717854720E-01
          0                 6           2             8    3     1       0.1236639996E-03       7    6    1        -0.5552920232E-02      0.1668923693E-01
          0                 7           1             8    3     1       0.5549713203E-04       8    3    1         0.1443059183E-02      0.7113141652E-02
          0                 8           1             8    3     1       0.2490531311E-04       8    3    1         0.6476052164E-03      0.3158876980E-02
          0                 9           1             8    3     1       0.1117654875E-04       8    3    1         0.2906235171E-03      0.1412562660E-02
          0                10           1             8    3     1       0.5015539530E-05       8    3    1         0.1304203611E-03      0.6323809869E-03

    ------------------------------------------------
       NWT REQUIRED           10 OUTER ITERATIONS 
       AND A TOTAL OF         16 INNER ITERATIONS.
    ------------------------------------------------

 NO OUTPUT CONTROL FOR STRESS PERIOD    6   TIME STEP   17
 
 SOLVING FOR HEAD 
                                                   Max.-Head-Change                         Max.-Flux-Residual
  Residual-Control   Outer-Iter.   Inner-Iter.     Column Row Layer    Maximum-Head-Change  Column Row Layer    Maximum-Flux-Residual          L2-NORM 
          0                 1           2             7    6     1      -0.2893213712E+00       7    6    1        -0.1578639856E+02      0.1592466665E+02
          0                 2           2             7    6     1       0.3163353520E+00       7    6    1         0.1743554043E+02      0.1744266739E+02
          0                 3           2             7    6     1      -0.1814272629E-01       7    6    1        -0.1009675675E+01      0.1030348955E+01
          0                 4           2             7    6     1      -0.3201055115E-02       7    6    1        -0.1779801726E+00      0.1949686442E+00
          0                 5           2             7    6     1      -0.5655186018E-03       7    6    1        -0.3141676786E-01      0.4715356887E-01
          0                 6           2             8    3     1       0.1234525267E-03       7    6    1        -0.5552526318E-02      0.1667572771E-01
          0                 7           1             8    3     1       0.5540200567E-04       8    3    1         0.1440590381E-02      0.7106816905E-02
          0                 8           1             8    3     1       0.2486252724E-04       8    3    1         0.6464947086E-03      0.3156015169E-02
          0                 9           1             8    3     1       0.1115730583E-04       8    3    1         0.2901240382E-03      0.1411274443E-02
          0                10           1             8    3     1       0.5006886563E-05       8    3    1         0.1301957338E-03      0.6318042676E-03

    ------------------------------------------------
       NWT REQUIRED           10 OUTER ITERATIONS 
       AND A TOTAL OF         16 INNER ITERATIONS.
    ------------------------------------------------

 NO OUTPUT CONTROL FOR STRESS PERIOD    6   TIME STEP   18
 
 SOLVING FOR HEAD 
                                                   Max.-Head-Change                         Max.-Flux-Residual
  Residual-Control   Outer-Iter.   Inner-Iter.     Column Row Layer    Maximum-Head-Change  Column Row Layer    Maximum-Flux-Residual          L2-NORM 
          0                 1           2             7    6     1      -0.2893163765E+00       7    6    1        -0.1578614813E+02      0.1592304687E+02
          0                 2           2             7    6     1       0.3163346381E+00       7    6    1         0.1743551106E+02      0.1744261943E+02
          0                 3           2             7    6     1      -0.1814149418E-01       7    6    1        -0.1009608295E+01      0.1030254689E+01
          0                 4           2             7    6     1      -0.3200832243E-02       7    6    1        -0.1779679812E+00      0.1949286053E+00
          0                 5           2             7    6     1      -0.5654783135E-03       7    6    1        -0.3141456302E-01      0.4712812651E-01
          0                 6           2             8    3     1       0.1232412859E-03       7    6    1        -0.5552127933E-02      0.1666196484E-01
          0                 7           1             8    3     1       0.5530700211E-04       8    3    1         0.1438124378E-02      0.7100374868E-02
          0                 8           1             8    3     1       0.2481980377E-04       8    3    1         0.6453856597E-03      0.3153101990E-02
          0                 9           1             8    3     1       0.1113809505E-04       8    3    1         0.2896253064E-03      0.1409964997E-02
          0                10           1             8    3     1       0.4998248603E-05       8    3    1         0.1299714751E-03      0.6312147453E-03

    ------------------------------------------------
       NWT REQUIRED           10 OUTER ITERATIONS 
       AND A TOTAL OF         16 INNER ITERATIONS.
    ------------------------------------------------

 NO OUTPUT CONTROL FOR STRESS PERIOD    6   TIME STEP   19
 
 SOLVING FOR HEAD 
                                                   Max.-Head-Change                         Max.-Flux-Residual
  Residual-Control   Outer-Iter.   Inner-Iter.     Column Row Layer    Maximum-Head-Change  Column Row Layer    Maximum-Flux-Residual          L2-NORM 
          0                 1           2             7    6     1      -0.2893114318E+00       7    6    1        -0.1578590048E+02      0.1592161359E+02
          0                 2           2             7    6     1       0.3163339323E+00       7    6    1         0.1743548216E+02      0.1744257304E+02
          0                 3           2             7    6     1      -0.1814027672E-01       7    6    1        -0.1009541731E+01      0.1030160820E+01
          0                 4           2             7    6     1      -0.3200611949E-02       7    6    1        -0.1779559334E+00      0.1948881224E+00
          0                 5           2             7    6     1      -0.5654384794E-03       7    6    1        -0.3141238346E-01      0.4710222291E-01
          0                 6           2             8    3     1       0.1230285676E-03       7    6    1        -0.5551734023E-02      0.1664793346E-01
          0                 7           1             8    3     1       0.5521134152E-04       8    3    1         0.1435641161E-02      0.7093807797E-02
          0                 8           1             8    3     1       0.2477678868E-04       8    3    1         0.6442689638E-03      0.3150132750E-02
          0                 9           1             8    3     1       0.1111875446E-04       8    3    1         0.2891231764E-03      0.1408630289E-02
          0                10           1             8    3     1       0.4989553242E-05       8    3    1         0.1297457054E-03      0.6306160127E-03

    ------------------------------------------------
       NWT REQUIRED           10 OUTER ITERATIONS 
       AND A TOTAL OF         16 INNER ITERATIONS.
    ------------------------------------------------

 NO OUTPUT CONTROL FOR STRESS PERIOD    6   TIME STEP   20
 
 SOLVING FOR HEAD 
                                                   Max.-Head-Change                         Max.-Flux-Residual
  Residual-Control   Outer-Iter.   Inner-Iter.     Column Row Layer    Maximum-Head-Change  Column Row Layer    Maximum-Flux-Residual          L2-NORM 
          0                 1           2             7    6     1      -0.2893066552E+00       7    6    1        -0.1578566184E+02      0.1592034415E+02
          0                 2           2             7    6     1       0.3163332455E+00       7    6    1         0.1743545435E+02      0.1744252867E+02
          0                 3           2             7    6     1      -0.1813910270E-01       7    6    1        -0.1009477579E+01      0.1030069061E+01
          0                 4           2             7    6     1      -0.3200399351E-02       7    6    1        -0.1779443124E+00      0.1948476501E+00
          0                 5           2             7    6     1      -0.5654000092E-03       7    6    1        -0.3141027951E-01      0.4707604452E-01
          0                 6           2             8    3     1       0.1228146006E-03       7    6    1        -0.5551353497E-02      0.1663372096E-01
          0                 7           1             8    3     1       0.5511514156E-04       8    3    1         0.1433143471E-02      0.7087154211E-02
          0                 8           1             8    3     1       0.2473354048E-04       8    3    1         0.6431460113E-03      0.3147125180E-02
          0                 9           1             8    3     1       0.1109931295E-04       8    3    1         0.2886183437E-03      0.1407279021E-02
          0                10           1             8    3     1       0.4980814488E-05       8    3    1         0.1295187773E-03      0.6300098150E-03

    ------------------------------------------------
       NWT REQUIRED           10 OUTER ITERATIONS 
       AND A TOTAL OF         16 INNER ITERATIONS.
    ------------------------------------------------

 NO OUTPUT CONTROL FOR STRESS PERIOD    6   TIME STEP   21
 
 SOLVING FOR HEAD 
                                                   Max.-Head-Change                         Max.-Flux-Residual
  Residual-Control   Outer-Iter.   Inner-Iter.     Column Row Layer    Maximum-Head-Change  Column Row Layer    Maximum-Flux-Residual          L2-NORM 
          0                 1           2             7    6     1      -0.2893018003E+00       7    6    1        -0.1578541893E+02      0.1591919778E+02
          0                 2           2             7    6     1       0.3163325541E+00       7    6    1         0.1743542630E+02      0.1744248456E+02
          0                 3           2             7    6     1      -0.1813791272E-01       7    6    1        -0.1009412541E+01      0.1029976055E+01
          0                 4           2             7    6     1      -0.3200183920E-02       7    6    1        -0.1779325344E+00      0.1948066109E+00
          0                 5           2             7    6     1      -0.5653610370E-03       7    6    1        -0.3140814775E-01      0.4704950083E-01
          0                 6           2             8    3     1       0.1226025025E-03       7    6    1        -0.5550968042E-02      0.1661931090E-01
          0                 7           1             8    3     1       0.5501978560E-04       8    3    1         0.1430667620E-02      0.7080410146E-02
          0                 8           1             8    3     1       0.2469067382E-04       8    3    1         0.6420329276E-03      0.3144077383E-02
          0                 9           1             8    3     1       0.1108004377E-04       8    3    1         0.2881179674E-03      0.1405909927E-02
          0                10           1             8    3     1       0.4972153893E-05       8    3    1         0.1292938577E-03      0.6293956562E-03

    ------------------------------------------------
       NWT REQUIRED           10 OUTER ITERATIONS 
       AND A TOTAL OF         16 INNER ITERATIONS.
    ------------------------------------------------

 NO OUTPUT CONTROL FOR STRESS PERIOD    6   TIME STEP   22
 
 SOLVING FOR HEAD 
                                                   Max.-Head-Change                         Max.-Flux-Residual
  Residual-Control   Outer-Iter.   Inner-Iter.     Column Row Layer    Maximum-Head-Change  Column Row Layer    Maximum-Flux-Residual          L2-NORM 
          0                 1           2             7    6     1      -0.2892969932E+00       7    6    1        -0.1578517848E+02      0.1591816150E+02
          0                 2           2             7    6     1       0.3163318697E+00       7    6    1         0.1743539867E+02      0.1744244162E+02
          0                 3           2             7    6     1      -0.1813673695E-01       7    6    1        -0.1009348292E+01      0.1029883564E+01
          0                 4           2             7    6     1      -0.3199971013E-02       7    6    1        -0.1779208963E+00      0.1947652948E+00
          0                 5           2             7    6     1      -0.5653225121E-03       7    6    1        -0.3140604078E-01      0.4702263031E-01
          0                 6           2             8    3     1       0.1223891662E-03       7    6    1        -0.5550586975E-02      0.1660470650E-01
          0                 7           1             8    3     1       0.5492388777E-04       8    3    1         0.1428177377E-02      0.7073574545E-02
          0                 8           1             8    3     1       0.2464756981E-04       8    3    1         0.6409135445E-03      0.3140988889E-02
          0                 9           1             8    3     1       0.1106067130E-04       8    3    1         0.2876148370E-03      0.1404523436E-02
          0                10           1             8    3     1       0.4963447402E-05       8    3    1         0.1290677284E-03      0.6287739545E-03

    ------------------------------------------------
       NWT REQUIRED           10 OUTER ITERATIONS 
       AND A TOTAL OF         16 INNER ITERATIONS.
    ------------------------------------------------

 NO OUTPUT CONTROL FOR STRESS PERIOD    6   TIME STEP   23
 
 SOLVING FOR HEAD 
                                                   Max.-Head-Change                         Max.-Flux-Residual
  Residual-Control   Outer-Iter.   Inner-Iter.     Column Row Layer    Maximum-Head-Change  Column Row Layer    Maximum-Flux-Residual          L2-NORM 
          0                 1           2             7    6     1      -0.2892922312E+00       7    6    1        -0.1578494053E+02      0.1591721897E+02
          0                 2           2             7    6     1       0.3163311928E+00       7    6    1         0.1743537148E+02      0.1744239972E+02
          0                 3           2             7    6     1      -0.1813557470E-01       7    6    1        -0.1009284796E+01      0.1029791691E+01
          0                 4           2             7    6     1      -0.3199760485E-02       7    6    1        -0.1779093907E+00      0.1947238745E+00
          0                 5           2             7    6     1      -0.5652844065E-03       7    6    1        -0.3140395716E-01      0.4699558237E-01
          0                 6           2             8    3     1       0.1221762297E-03       7    6    1        -0.5550210036E-02      0.1658999310E-01
          0                 7           1             8    3     1       0.5482818078E-04       8    3    1         0.1425691865E-02      0.7066688209E-02
          0                 8           1             8    3     1       0.2460455621E-04       8    3    1         0.6397964137E-03      0.3137877977E-02
          0                 9           1             8    3     1       0.1104134109E-04       8    3    1         0.2871127758E-03      0.1403126385E-02
          0                10           1             8    3     1       0.4954761671E-05       8    3    1         0.1288421137E-03      0.6281476304E-03

    ------------------------------------------------
       NWT REQUIRED           10 OUTER ITERATIONS 
       AND A TOTAL OF         16 INNER ITERATIONS.
    ------------------------------------------------

 NO OUTPUT CONTROL FOR STRESS PERIOD    6   TIME STEP   24
 
 SOLVING FOR HEAD 
                                                   Max.-Head-Change                         Max.-Flux-Residual
  Residual-Control   Outer-Iter.   Inner-Iter.     Column Row Layer    Maximum-Head-Change  Column Row Layer    Maximum-Flux-Residual          L2-NORM 
          0                 1           2             7    6     1      -0.2892873978E+00       7    6    1        -0.1578469842E+02      0.1591634654E+02
          0                 2           2             7    6     1       0.3163305103E+00       7    6    1         0.1743534402E+02      0.1744235794E+02
          0                 3           2             7    6     1      -0.1813439800E-01       7    6    1        -0.1009220492E+01      0.1029698670E+01
          0                 4           2             7    6     1      -0.3199547422E-02       7    6    1        -0.1778977436E+00      0.1946819163E+00
          0                 5           2             7    6     1      -0.5652458552E-03       7    6    1        -0.3140184870E-01      0.4696817515E-01
          0                 6           2             8    3     1       0.1219621080E-03       7    6    1        -0.5549828725E-02      0.1657508269E-01
          0                 7           1             8    3     1       0.5473195193E-04       8    3    1         0.1423192568E-02      0.7059710804E-02
          0                 8           1             8    3     1       0.2456131351E-04       8    3    1         0.6386732200E-03      0.3134726924E-02
          0                 9           1             8    3     1       0.1102191034E-04       8    3    1         0.2866080430E-03      0.1401711771E-02
          0                10           1             8    3     1       0.4946030920E-05       8    3    1         0.1286153135E-03      0.6275117583E-03

    ------------------------------------------------
       NWT REQUIRED           10 OUTER ITERATIONS 
       AND A TOTAL OF         16 INNER ITERATIONS.
    ------------------------------------------------

 NO OUTPUT CONTROL FOR STRESS PERIOD    6   TIME STEP   25
 
 SOLVING FOR HEAD 
                                                   Max.-Head-Change                         Max.-Flux-Residual
  Residual-Control   Outer-Iter.   Inner-Iter.     Column Row Layer    Maximum-Head-Change  Column Row Layer    Maximum-Flux-Residual          L2-NORM 
          0                 1           2             7    6     1      -0.2892827349E+00       7    6    1        -0.1578446567E+02      0.1591554343E+02
          0                 2           2             7    6     1       0.3163298478E+00       7    6    1         0.1743531768E+02      0.1744231752E+02
          0                 3           2             7    6     1      -0.1813326480E-01       7    6    1        -0.1009158608E+01      0.1029607805E+01
          0                 4           2             7    6     1      -0.3199342045E-02       7    6    1        -0.1778865235E+00      0.1946401003E+00
          0                 5           2             7    6     1      -0.5652086633E-03       7    6    1        -0.3139981570E-01      0.4694061073E-01
          0                 6           2             8    3     1       0.1217484834E-03       7    6    1        -0.5549460766E-02      0.1656005774E-01
          0                 7           1             8    3     1       0.5463595768E-04       8    3    1         0.1420699126E-02      0.7052678595E-02
          0                 8           1             8    3     1       0.2451818061E-04       8    3    1         0.6375527799E-03      0.3131551023E-02
          0                 9           1             8    3     1       0.1100253074E-04       8    3    1         0.2861046042E-03      0.1400287829E-02
          0                10           1             8    3     1       0.4937324429E-05       8    3    1         0.1283891256E-03      0.6268746583E-03

    ------------------------------------------------
       NWT REQUIRED           10 OUTER ITERATIONS 
       AND A TOTAL OF         16 INNER ITERATIONS.
    ------------------------------------------------

 NO OUTPUT CONTROL FOR STRESS PERIOD    6   TIME STEP   26
 
 SOLVING FOR HEAD 
                                                   Max.-Head-Change                         Max.-Flux-Residual
  Residual-Control   Outer-Iter.   Inner-Iter.     Column Row Layer    Maximum-Head-Change  Column Row Layer    Maximum-Flux-Residual          L2-NORM 
          0                 1           2             7    6     1      -0.2892781156E+00       7    6    1        -0.1578423517E+02      0.1591479252E+02
          0                 2           2             7    6     1       0.3163291919E+00       7    6    1         0.1743529174E+02      0.1744227785E+02
          0                 3           2             7    6     1      -0.1813214493E-01       7    6    1        -0.1009097462E+01      0.1029517458E+01
          0                 4           2             7    6     1      -0.3199139030E-02       7    6    1        -0.1778754344E+00      0.1945981184E+00
          0                 5           2             7    6     1      -0.5651718901E-03       7    6    1        -0.3139780593E-01      0.4691281711E-01
          0                 6           2             8    3     1       0.1215353383E-03       7    6    1        -0.5549096928E-02      0.1654489326E-01
          0                 7           1             8    3     1       0.5454018591E-04       8    3    1         0.1418211313E-02      0.7045580835E-02
          0                 8           1             8    3     1       0.2447515051E-04       8    3    1         0.6364349495E-03      0.3128346604E-02
          0                 9           1             8    3     1       0.1098319890E-04       8    3    1         0.2856023759E-03      0.1398848789E-02
          0                10           1             8    3     1       0.4928639948E-05       8    3    1         0.1281634972E-03      0.6262282378E-03

    ------------------------------------------------
       NWT REQUIRED           10 OUTER ITERATIONS 
       AND A TOTAL OF         16 INNER ITERATIONS.
    ------------------------------------------------

 NO OUTPUT CONTROL FOR STRESS PERIOD    6   TIME STEP   27
 
 SOLVING FOR HEAD 
                                                   Max.-Head-Change                         Max.-Flux-Residual
  Residual-Control   Outer-Iter.   Inner-Iter.     Column Row Layer    Maximum-Head-Change  Column Row Layer    Maximum-Flux-Residual          L2-NORM 
          0                 1           2             7    6     1      -0.2892734172E+00       7    6    1        -0.1578400048E+02      0.1591407704E+02
          0                 2           2             7    6     1       0.3163285315E+00       7    6    1         0.1743526554E+02      0.1744223823E+02
          0                 3           2             7    6     1      -0.1813100826E-01       7    6    1        -0.1009035389E+01      0.1029426206E+01
          0                 4           2             7    6     1      -0.3198933020E-02       7    6    1        -0.1778641798E+00      0.1945559231E+00
          0                 5           2             7    6     1      -0.5651345828E-03       7    6    1        -0.3139576667E-01      0.4688494392E-01
          0                 6           2             8    3     1       0.1213211745E-03       7    6    1        -0.5548727830E-02      0.1652969052E-01
          0                 7           1             8    3     1       0.5444397045E-04       8    3    1         0.1415711674E-02      0.7038465993E-02
          0                 8           1             8    3     1       0.2443192769E-04       8    3    1         0.6353119752E-03      0.3125134348E-02
          0                 9           1             8    3     1       0.1096378316E-04       8    3    1         0.2850979082E-03      0.1397406684E-02
          0                10           1             8    3     1       0.4919918826E-05       8    3    1         0.1279368920E-03      0.6255819906E-03

    ------------------------------------------------
       NWT REQUIRED           10 OUTER ITERATIONS 
       AND A TOTAL OF         16 INNER ITERATIONS.
    ------------------------------------------------

 NO OUTPUT CONTROL FOR STRESS PERIOD    6   TIME STEP   28
 
 SOLVING FOR HEAD 
                                                   Max.-Head-Change                         Max.-Flux-Residual
  Residual-Control   Outer-Iter.   Inner-Iter.     Column Row Layer    Maximum-Head-Change  Column Row Layer    Maximum-Flux-Residual          L2-NORM 
          0                 1           2             7    6     1      -0.2892688842E+00       7    6    1        -0.1578377464E+02      0.1591345212E+02
          0                 2           2             7    6     1       0.3163278895E+00       7    6    1         0.1743524041E+02      0.1744220001E+02
          0                 3           2             7    6     1      -0.1812991411E-01       7    6    1        -0.1008975675E+01      0.1029337091E+01
          0                 4           2             7    6     1      -0.3198734544E-02       7    6    1        -0.1778533431E+00      0.1945138573E+00
          0                 5           2             7    6     1      -0.5650986119E-03       7    6    1        -0.3139380146E-01      0.4685690014E-01
          0                 6           2             8    3     1       0.1211076053E-03       7    6    1        -0.5548371844E-02      0.1651436469E-01
          0                 7           1             8    3     1       0.5434803060E-04       8    3    1         0.1413219021E-02      0.7031291868E-02
          0                 8           1             8    3     1       0.2438883293E-04       8    3    1         0.6341922446E-03      0.3121895696E-02
          0                 9           1             8    3     1       0.1094442681E-04       8    3    1         0.2845949413E-03      0.1395953810E-02
          0                10           1             8    3     1       0.4911225092E-05       8    3    1         0.1277109801E-03      0.6249308492E-03

    ------------------------------------------------
       NWT REQUIRED           10 OUTER ITERATIONS 
       AND A TOTAL OF         16 INNER ITERATIONS.
    ------------------------------------------------

 NO OUTPUT CONTROL FOR STRESS PERIOD    6   TIME STEP   29
 
 SOLVING FOR HEAD 
                                                   Max.-Head-Change                         Max.-Flux-Residual
  Residual-Control   Outer-Iter.   Inner-Iter.     Column Row Layer    Maximum-Head-Change  Column Row Layer    Maximum-Flux-Residual          L2-NORM 
          0                 1           2             7    6     1      -0.2892642710E+00       7    6    1        -0.1578354439E+02      0.1591283245E+02
          0                 2           2             7    6     1       0.3163272423E+00       7    6    1         0.1743521500E+02      0.1744216167E+02
          0                 3           2             7    6     1      -0.1812880336E-01       7    6    1        -0.1008915039E+01      0.1029247022E+01
          0                 4           2             7    6     1      -0.3198533128E-02       7    6    1        -0.1778423433E+00      0.1944715752E+00
          0                 5           2             7    6     1      -0.5650621191E-03       7    6    1        -0.3139180736E-01      0.4682877201E-01
          0                 6           2             8    3     1       0.1208946340E-03       7    6    1        -0.5548010754E-02      0.1649899524E-01
          0                 7           1             8    3     1       0.5425236675E-04       8    3    1         0.1410733387E-02      0.7024096885E-02
          0                 8           1             8    3     1       0.2434586423E-04       8    3    1         0.6330757395E-03      0.3118647662E-02
          0                 9           1             8    3     1       0.1092512875E-04       8    3    1         0.2840934652E-03      0.1394496708E-02
          0                10           1             8    3     1       0.4902558119E-05       8    3    1         0.1274857515E-03      0.6242781701E-03

    ------------------------------------------------
       NWT REQUIRED           10 OUTER ITERATIONS 
       AND A TOTAL OF         16 INNER ITERATIONS.
    ------------------------------------------------

 NO OUTPUT CONTROL FOR STRESS PERIOD    6   TIME STEP   30



 STREAM LISTING     PERIOD      6   STEP       30

 LAYER ROW COL. STREAM  RCH.  FLOW INTO     FLOW TO   FLOW OUT OF   OVRLND.     DIRECT     STREAM       STREAM     STREAM     STREAM   STREAMBED  STREAMBED
                SEG.NO.  NO.  STRM. RCH.    AQUIFER    STRM. RCH.    RUNOFF     PRECIP       ET          HEAD       DEPTH      WIDTH   CONDCTNC.   GRADIENT

   1    1    1     1     1    9.9000E+01  4.7281E-01   9.8527E+01  0.000E+00  0.000E+00  0.000E+00  1.09484E+03  1.796E+00  2.191E+01  9.859E-02  1.599E+00
   1    2    2     1     2    9.8527E+01  7.3365E-01   9.7794E+01  0.000E+00  0.000E+00  0.000E+00  1.08985E+03  1.793E+00  2.187E+01  1.531E-01  1.598E+00
   1    3    3     1     3    9.7794E+01  6.2707E-01   9.7166E+01  0.000E+00  0.000E+00  0.000E+00  1.08421E+03  1.791E+00  2.181E+01  1.309E-01  1.597E+00
   1    3    4     1     4    9.7166E+01  5.7859E-01   9.6588E+01  0.000E+00  0.000E+00  0.000E+00  1.07920E+03  1.789E+00  2.177E+01  1.208E-01  1.596E+00
   1    4    5     2     1    9.4588E+01  0.0000E+00   9.4588E+01  0.000E+00  0.000E+00  0.000E+00  1.07462E+03  2.683E+00  1.200E+01  0.000E+00  1.894E+00
   1    5    6     2     2    9.4588E+01  0.0000E+00   9.4588E+01  0.000E+00  0.000E+00  0.000E+00  1.06919E+03  2.683E+00  1.200E+01  0.000E+00  1.894E+00
   1    6    6     2     3    9.4588E+01  0.0000E+00   9.4588E+01  0.000E+00  0.000E+00  0.000E+00  1.06448E+03  2.683E+00  1.200E+01  0.000E+00  1.894E+00
   1    7    6     2     4    9.4588E+01  0.0000E+00   9.4588E+01  0.000E+00  0.000E+00  0.000E+00  1.05976E+03  2.683E+00  1.200E+01  0.000E+00  1.894E+00
   1    8    6     2     5    9.4588E+01  0.0000E+00   9.4588E+01  0.000E+00  0.000E+00  0.000E+00  1.05504E+03  2.683E+00  1.200E+01  0.000E+00  1.894E+00
   1    3    5     3     1    2.0000E+00  2.8252E-01   1.7175E+00  0.000E+00  0.000E+00  0.000E+00  1.07555E+03  1.909E+00  9.636E+00  7.227E-02  1.955E+00
   1    3    6     3     2    1.7175E+00  2.4905E-01   1.4684E+00  0.000E+00  0.000E+00  0.000E+00  1.07264E+03  1.727E+00  8.909E+00  6.682E-02  1.864E+00
   1    3    7     3     3    1.4684E+00  1.9718E-01   1.2712E+00  0.000E+00  0.000E+00  0.000E+00  1.06987E+03  1.555E+00  8.218E+00  5.547E-02  1.777E+00
   1    4    8     3     4    1.2712E+00  2.2567E-01   1.0456E+00  0.000E+00  0.000E+00  0.000E+00  1.06682E+03  1.364E+00  7.455E+00  6.709E-02  1.682E+00
   1    5    8     3     5    1.0456E+00  1.5790E-01   8.8768E-01  0.000E+00  0.000E+00  0.000E+00  1.06362E+03  1.164E+00  6.655E+00  4.991E-02  1.582E+00
   1    6    8     3     6    8.8768E-01  5.5980E-02   8.3170E-01  0.000E+00  0.000E+00  0.000E+00  1.06158E+03  1.036E+00  6.145E+00  1.844E-02  1.518E+00
   1    5   10     4     1    1.0000E+01  0.0000E+00   1.0000E+01  0.000E+00  0.000E+00  0.000E+00  1.07837E+03  6.385E-01  1.000E+01  0.000E+00  1.213E+00
   1    5    9     4     2    1.0000E+01  0.0000E+00   1.0000E+01  0.000E+00  0.000E+00  0.000E+00  1.07155E+03  6.385E-01  1.000E+01  0.000E+00  1.213E+00
   1    6    8     4     3    1.0000E+01  0.0000E+00   1.0000E+01  0.000E+00  0.000E+00  0.000E+00  1.06382E+03  6.385E-01  1.000E+01  0.000E+00  1.213E+00
   1    6    8     5     1    1.0832E+01  2.3262E-01   1.0599E+01  0.000E+00  0.000E+00  0.000E+00  1.05869E+03  6.881E-01  1.577E+01  6.307E-02  1.229E+00
   1    7    7     5     2    1.0599E+01  2.8607E-01   1.0313E+01  0.000E+00  0.000E+00  0.000E+00  1.05418E+03  6.822E-01  1.554E+01  7.769E-02  1.227E+00
   1    8    7     5     3    1.0313E+01  1.9716E-01   1.0116E+01  0.000E+00  0.000E+00  0.000E+00  1.04993E+03  6.766E-01  1.532E+01  5.363E-02  1.226E+00
   1    8    6     5     4    1.0116E+01  1.3929E-01   9.9766E+00  0.000E+00  0.000E+00  0.000E+00  1.04692E+03  6.727E-01  1.517E+01  3.792E-02  1.224E+00
   1    9    6     6     1    1.0456E+02  0.0000E+00   1.0456E+02  0.000E+00  0.000E+00  0.000E+00  1.04561E+03  2.881E+00  1.200E+01  0.000E+00  1.960E+00
   1   10    7     6     2    1.0456E+02  0.0000E+00   1.0456E+02  0.000E+00  0.000E+00  0.000E+00  1.04106E+03  2.881E+00  1.200E+01  0.000E+00  1.960E+00
   1   11    7     6     3    1.0456E+02  0.0000E+00   1.0456E+02  0.000E+00  0.000E+00  0.000E+00  1.03652E+03  2.881E+00  1.200E+01  0.000E+00  1.960E+00
   1   12    7     6     4    1.0456E+02  0.0000E+00   1.0456E+02  0.000E+00  0.000E+00  0.000E+00  1.03197E+03  2.881E+00  1.200E+01  0.000E+00  1.960E+00
   1   13    7     6     5    1.0456E+02  0.0000E+00   1.0456E+02  0.000E+00  0.000E+00  0.000E+00  1.02879E+03  2.881E+00  1.200E+01  0.000E+00  7.638E-01
   1   14    9     7     1    1.5000E+02  1.2897E+00   1.4871E+02  0.000E+00  0.000E+00  0.000E+00  1.03987E+03  2.288E+00  5.530E+01  5.593E-01  7.686E-01
   1   13    8     7     2    1.4871E+02  1.9545E+00   1.4676E+02  0.000E+00  0.000E+00  0.000E+00  1.03478E+03  2.279E+00  5.526E+01  6.148E-01  1.060E+00
   1   13    7     7     3    1.4676E+02  1.7810E+00   1.4497E+02  0.000E+00  0.000E+00  0.000E+00  1.02969E+03  2.269E+00  5.521E+01  5.584E-01  1.063E+00
   1   13    6     8     1    2.4954E+02  1.5358E+00   2.4800E+02  0.000E+00  0.000E+00  0.000E+00  1.02528E+03  3.405E+00  4.938E+01  5.032E-01  1.017E+00
   1   13    5     8     2    2.4800E+02  6.1880E-01   2.4738E+02  0.000E+00  0.000E+00  0.000E+00  1.01902E+03  3.400E+00  4.930E+01  5.023E-01  4.106E-01
   1   13    4     8     3    2.4738E+02 -1.1600E+00   2.4854E+02  0.000E+00  0.000E+00  0.000E+00  1.01278E+03  3.401E+00  4.932E+01  5.026E+00 -7.694E-02
   1   13    3     8     4    2.4854E+02 -3.0058E+00   2.5155E+02  0.000E+00  0.000E+00  0.000E+00  1.00654E+03  3.412E+00  4.947E+01  5.041E+00 -1.987E-01
   1   13    2     8     5    2.5155E+02 -2.3935E+00   2.5394E+02  0.000E+00  0.000E+00  0.000E+00  1.00030E+03  3.426E+00  4.967E+01  5.062E+00 -1.576E-01
   1   13    1     8     6    2.5394E+02 -1.6731E+00   2.5562E+02  0.000E+00  0.000E+00  0.000E+00  9.95311E+02  3.436E+00  4.982E+01  3.046E+00 -1.831E-01
   1    6    8     9     1    0.0000E+00  0.0000E+00   0.0000E+00  0.000E+00  0.000E+00  0.000E+00  1.07850E+03  0.000E+00  4.000E+00  0.000E+00  1.000E+00





UNSATURATED ZONE PACKAGE VOLUMETRIC BUDGET FOR  TIME STEP    30 STRESS PERIOD    6
  ------------------------------------------------------------------------------



     CUMULATIVE VOLUMES      L**3       RATES FOR THIS TIME STEP      L**3/T
     ------------------                 ------------------------

           IN:                                      IN:
           ---                                      ---
        INFILTRATION =    13363380.0000          INFILTRATION =           0.8475

          OUT:                                     OUT:
          ----                                     ----
              UZF ET =   114819350.6783                UZF ET =          28.2627
        UZF RECHARGE =   367852070.0293          UZF RECHARGE =          26.3517

            IN - OUT =  -469308040.7076              IN - OUT =         -53.7670

          STORAGE:                                 STORAGE:
          --------                                 --------
      STORAGE CHANGE =  -469301613.3070        STORAGE CHANGE =         -53.7660

 PERCENT DISCREPANCY IS DIFFERENCE BETWEEN IN-OUT MINUS CHANGE IN STORAGE
 DIVIDED BY THE AVERAGE OF IN AND OUT TIMES 100

 PERCENT DISCREPANCY =          -0.00     PERCENT DISCREPANCY =          -0.00






1
  VOLUMETRIC BUDGET FOR ENTIRE MODEL AT END OF TIME STEP   30, STRESS PERIOD   6
  ------------------------------------------------------------------------------

     CUMULATIVE VOLUMES      L**3       RATES FOR THIS TIME STEP      L**3/T
     ------------------                 ------------------------

           IN:                                      IN:
           ---                                      ---
             STORAGE =     3354869.7500               STORAGE =           0.0000
       CONSTANT HEAD =           0.0000         CONSTANT HEAD =           0.0000
               WELLS =           0.0000                 WELLS =           0.0000
     HEAD DEP BOUNDS =     4540820.5000       HEAD DEP BOUNDS =           0.2826
      STREAM LEAKAGE =   166698368.0000        STREAM LEAKAGE =          11.6154
        UZF RECHARGE =   367852032.0000          UZF RECHARGE =          26.3517
               GW ET =           0.0000                 GW ET =           0.0000
     SURFACE LEAKAGE =           0.0000       SURFACE LEAKAGE =           0.0000

            TOTAL IN =   542446080.0000              TOTAL IN =          38.2498

          OUT:                                     OUT:
          ----                                     ----
             STORAGE =   399700160.0000               STORAGE =          28.9789
       CONSTANT HEAD =           0.0000         CONSTANT HEAD =           0.0000
               WELLS =           0.0000                 WELLS =           0.0000
     HEAD DEP BOUNDS =     4597078.0000       HEAD DEP BOUNDS =           0.2987
      STREAM LEAKAGE =   132990888.0000        STREAM LEAKAGE =           8.2324
        UZF RECHARGE =           0.0000          UZF RECHARGE =           0.0000
               GW ET =     5126755.5000                 GW ET =           0.7376
     SURFACE LEAKAGE =           0.0000       SURFACE LEAKAGE =           0.0000

           TOTAL OUT =   542414912.0000             TOTAL OUT =          38.2477

            IN - OUT =       31168.0000              IN - OUT =       2.0752E-03

 PERCENT DISCREPANCY =           0.01     PERCENT DISCREPANCY =           0.01






         TIME SUMMARY AT END OF TIME STEP   30 IN STRESS PERIOD    6
                    SECONDS     MINUTES      HOURS       DAYS        YEARS
                    -----------------------------------------------------------
   TIME STEP LENGTH  87600.      1460.0      24.333      1.0139     2.77588E-03
 STRESS PERIOD TIME 2.62800E+06  43800.      730.00      30.417     8.32763E-02
         TOTAL TIME 1.57680E+07 2.62800E+05  4380.0      182.50     0.49966    
1
1
                            STRESS PERIOD NO.    7, LENGTH =   2628000.    
                            -----------------------------------------------

                              NUMBER OF TIME STEPS =    30

                               MULTIPLIER FOR DELT =     1.000

                            INITIAL TIME STEP SIZE =   87600.00    

 WELL NO.  LAYER   ROW   COL   STRESS RATE         
 --------------------------------------------------
      1      1      6      4       0.000    
      2      1      6      7       0.000    
      3      1      7      4       0.000    
      4      1      7      5       0.000    
      5      1      8      4       0.000    
      6      1      8      5       0.000    
      7      1      9      4       0.000    
      8      1      9      5       0.000    
      9      1     10      4       0.000    
     10      1     10      5       0.000    

     10 WELLS

 REUSING NON-PARAMETER GHB CELLS FROM LAST STRESS PERIOD

      2 GHB CELLS

 REUSING STREAM SEGMENT DATA FROM LAST STRESS PERIOD



            AREAL INFILTRATION RATE
 READING ON UNIT   19 WITH FORMAT: (10F4.0)            

            1           2           3           4           5           6           7           8           9          10
 ........................................................................................................................
   1   1.0000E-10  2.0000E-10   0.000       0.000       0.000       0.000       0.000       0.000       0.000       0.000    
   2   2.0000E-10  1.0000E-10  2.0000E-10   0.000       0.000      8.0000E-10  8.0000E-10  5.0000E-10   0.000       0.000    
   3    0.000      5.0000E-10  1.0000E-10  1.0000E-10  8.0000E-10  8.0000E-10  5.0000E-10  5.0000E-10   0.000       0.000    
   4   8.0000E-10  5.0000E-10  1.0000E-10  1.0000E-10  1.0000E-10  1.0000E-10  1.0000E-10  1.0000E-10  2.0000E-10   0.000    
   5   8.0000E-10  5.0000E-10  1.0000E-10  1.0000E-10  1.0000E-10  1.0000E-10  1.0000E-10  1.0000E-10  1.0000E-10  1.0000E-10
   6   8.0000E-10  5.0000E-10  5.0000E-10  2.0000E-10  2.0000E-10  1.0000E-10  1.0000E-10  1.0000E-10  1.0000E-10  5.0000E-10
   7   8.0000E-10  5.0000E-10  5.0000E-10  2.0000E-10  2.0000E-10  1.0000E-10  1.0000E-10  2.0000E-10  2.0000E-10   0.000    
   8    0.000      5.0000E-10  5.0000E-10  2.0000E-10  2.0000E-10  1.0000E-10  1.0000E-10  2.0000E-10  5.0000E-10   0.000    
   9    0.000      5.0000E-10  5.0000E-10  2.0000E-10  2.0000E-10  1.0000E-10  1.0000E-10  2.0000E-10  5.0000E-10   0.000    
  10    0.000      5.0000E-10  5.0000E-10  2.0000E-10  2.0000E-10  1.0000E-10  1.0000E-10  2.0000E-10  5.0000E-10  8.0000E-10
  11    0.000      1.0000E-10  1.0000E-10  1.0000E-10  1.0000E-10  1.0000E-10  1.0000E-10  2.0000E-10  5.0000E-10   0.000    
  12   1.0000E-10  1.0000E-10  1.0000E-10  1.0000E-10  1.0000E-10  1.0000E-10  1.0000E-10  1.0000E-10  2.0000E-10   0.000    
  13   1.0000E-10  1.0000E-10  2.0000E-10  2.0000E-10  2.0000E-10  2.0000E-10  2.0000E-10  1.0000E-10  1.0000E-10   0.000    
  14    0.000      2.0000E-10  5.0000E-10  5.0000E-10  5.0000E-10  5.0000E-10  5.0000E-10  2.0000E-10  1.0000E-10   0.000    
  15    0.000       0.000      8.0000E-10  8.0000E-10  8.0000E-10  8.0000E-10   0.000       0.000       0.000       0.000    

                  ET RATE =  3.000000E-08

 USING ET EXTINCTION DEPTH FROM PREVIOUS STRESS PERIOD. CURRENT PERIOD IS:       7

 USING EXTINCTION WATER CONTENT FROM PREVIOUS STRESS PERIOD. CURRENT PERIOD IS:       7
 
 SOLVING FOR HEAD 
                                                   Max.-Head-Change                         Max.-Flux-Residual
  Residual-Control   Outer-Iter.   Inner-Iter.     Column Row Layer    Maximum-Head-Change  Column Row Layer    Maximum-Flux-Residual          L2-NORM 
          0                 1           2             7    6     1      -0.2892597037E+00       7    6    1        -0.1578331652E+02      0.1596927697E+02
          0                 2           2             7    6     1       0.3163266016E+00       7    6    1         0.1743518999E+02      0.1744246489E+02
          0                 3           2             7    6     1      -0.1812770613E-01       7    6    1        -0.1008855153E+01      0.1029095050E+01
          0                 4           2             7    6     1      -0.3198334109E-02       7    6    1        -0.1778314763E+00      0.1943853476E+00
          0                 5           2             7    6     1      -0.5650260514E-03       7    6    1        -0.3138983681E-01      0.4677495972E-01
          0                 6           2             8    3     1       0.1206822407E-03       7    6    1        -0.5547653859E-02      0.1647016605E-01
          0                 7           1             8    3     1       0.5415696515E-04       8    3    1         0.1408254503E-02      0.7010698932E-02
          0                 8           1             8    3     1       0.2430301521E-04       8    3    1         0.6319623052E-03      0.3112629884E-02
          0                 9           1             8    3     1       0.1090588433E-04       8    3    1         0.2835933750E-03      0.1391809164E-02
          0                10           1             8    3     1       0.4893915657E-05       8    3    1         0.1272611567E-03      0.6230788150E-03

    ------------------------------------------------
       NWT REQUIRED           10 OUTER ITERATIONS 
       AND A TOTAL OF         16 INNER ITERATIONS.
    ------------------------------------------------

 NO OUTPUT CONTROL FOR STRESS PERIOD    7   TIME STEP    1
 
 SOLVING FOR HEAD 
                                                   Max.-Head-Change                         Max.-Flux-Residual
  Residual-Control   Outer-Iter.   Inner-Iter.     Column Row Layer    Maximum-Head-Change  Column Row Layer    Maximum-Flux-Residual          L2-NORM 
          0                 1           2             7    6     1      -0.2892552794E+00       7    6    1        -0.1578309656E+02      0.1599817635E+02
          0                 2           2             7    6     1       0.3163259611E+00       7    6    1         0.1743516499E+02      0.1744255617E+02
          0                 3           2             7    6     1      -0.1812664868E-01       7    6    1        -0.1008797481E+01      0.1028923959E+01
          0                 4           2             7    6     1      -0.3198142112E-02       7    6    1        -0.1778209997E+00      0.1942929895E+00
          0                 5           2             7    6     1      -0.5649912245E-03       7    6    1        -0.3138793519E-01      0.4671413335E-01
          0                 6           2             8    3     1       0.1204690169E-03       7    6    1        -0.5547309122E-02      0.1643717083E-01
          0                 7           1             8    3     1       0.5406120926E-04       8    3    1         0.1405766026E-02      0.6995347488E-02
          0                 8           1             8    3     1       0.2426001487E-04       8    3    1         0.6308447709E-03      0.3105740804E-02
          0                 9           1             8    3     1       0.1088657563E-04       8    3    1         0.2830915389E-03      0.1388736015E-02
          0                10           1             8    3     1       0.4885246058E-05       8    3    1         0.1270358164E-03      0.6217087173E-03

    ------------------------------------------------
       NWT REQUIRED           10 OUTER ITERATIONS 
       AND A TOTAL OF         16 INNER ITERATIONS.
    ------------------------------------------------

 NO OUTPUT CONTROL FOR STRESS PERIOD    7   TIME STEP    2
 
 SOLVING FOR HEAD 
                                                   Max.-Head-Change                         Max.-Flux-Residual
  Residual-Control   Outer-Iter.   Inner-Iter.     Column Row Layer    Maximum-Head-Change  Column Row Layer    Maximum-Flux-Residual          L2-NORM 
          0                 1           2             7    6     1      -0.2892507889E+00       7    6    1        -0.1578287280E+02      0.1598078751E+02
          0                 2           2             7    6     1       0.3163253331E+00       7    6    1         0.1743514073E+02      0.1744236210E+02
          0                 3           2             7    6     1      -0.1812557496E-01       7    6    1        -0.1008738903E+01      0.1028784492E+01
          0                 4           2             7    6     1      -0.3197947248E-02       7    6    1        -0.1778103636E+00      0.1942179907E+00
          0                 5           2             7    6     1      -0.5649558920E-03       7    6    1        -0.3138600545E-01      0.4665937692E-01
          0                 6           2             8    3     1       0.1202548380E-03       7    6    1        -0.5546959419E-02      0.1640675845E-01
          0                 7           1             8    3     1       0.5396502756E-04       8    3    1         0.1403266405E-02      0.6981132608E-02
          0                 8           1             8    3     1       0.2421682494E-04       8    3    1         0.6297222803E-03      0.3099353224E-02
          0                 9           1             8    3     1       0.1086718252E-04       8    3    1         0.2825874989E-03      0.1385884108E-02
          0                10           1             8    3     1       0.4876538817E-05       8    3    1         0.1268094995E-03      0.6204368504E-03

    ------------------------------------------------
       NWT REQUIRED           10 OUTER ITERATIONS 
       AND A TOTAL OF         16 INNER ITERATIONS.
    ------------------------------------------------

 NO OUTPUT CONTROL FOR STRESS PERIOD    7   TIME STEP    3
 
 SOLVING FOR HEAD 
                                                   Max.-Head-Change                         Max.-Flux-Residual
  Residual-Control   Outer-Iter.   Inner-Iter.     Column Row Layer    Maximum-Head-Change  Column Row Layer    Maximum-Flux-Residual          L2-NORM 
          0                 1           2             7    6     1      -0.2892463417E+00       7    6    1        -0.1578265129E+02      0.1596629473E+02
          0                 2           2             7    6     1       0.3163247116E+00       7    6    1         0.1743511685E+02      0.1744219500E+02
          0                 3           2             7    6     1      -0.1812451427E-01       7    6    1        -0.1008681046E+01      0.1028651856E+01
          0                 4           2             7    6     1      -0.3197754696E-02       7    6    1        -0.1777998555E+00      0.1941458593E+00
          0                 5           2             7    6     1      -0.5649209698E-03       7    6    1        -0.3138409845E-01      0.4660682566E-01
          0                 6           2             8    3     1       0.1200415029E-03       7    6    1        -0.5546613756E-02      0.1637760843E-01
          0                 7           1             8    3     1       0.5386924003E-04       8    3    1         0.1400776713E-02      0.6967528566E-02
          0                 8           1             8    3     1       0.2417381847E-04       8    3    1         0.6286044169E-03      0.3093250577E-02
          0                 9           1             8    3     1       0.1084787495E-04       8    3    1         0.2820856112E-03      0.1383165049E-02
          0                10           1             8    3     1       0.4867870718E-05       8    3    1         0.1265841750E-03      0.6194313096E-03

    ------------------------------------------------
       NWT REQUIRED           10 OUTER ITERATIONS 
       AND A TOTAL OF         16 INNER ITERATIONS.
    ------------------------------------------------

 NO OUTPUT CONTROL FOR STRESS PERIOD    7   TIME STEP    4
 
 SOLVING FOR HEAD 
                                                   Max.-Head-Change                         Max.-Flux-Residual
  Residual-Control   Outer-Iter.   Inner-Iter.     Column Row Layer    Maximum-Head-Change  Column Row Layer    Maximum-Flux-Residual          L2-NORM 
          0                 1           2             7    6     1      -0.2892419347E+00       7    6    1        -0.1578243203E+02      0.1595418962E+02
          0                 2           2             7    6     1       0.3163240970E+00       7    6    1         0.1743509337E+02      0.1744204938E+02
          0                 3           2             7    6     1      -0.1812346556E-01       7    6    1        -0.1008623859E+01      0.1028524442E+01
          0                 4           2             7    6     1      -0.3197564248E-02       7    6    1        -0.1777894649E+00      0.1940758577E+00
          0                 5           2             7    6     1      -0.5648864182E-03       7    6    1        -0.3138221207E-01      0.4655581049E-01
          0                 6           2             8    3     1       0.1198288769E-03       7    6    1        -0.5546271708E-02      0.1634926198E-01
          0                 7           1             8    3     1       0.5377377177E-04       8    3    1         0.1398295301E-02      0.6954275363E-02
          0                 8           1             8    3     1       0.2413095594E-04       8    3    1         0.6274902800E-03      0.3087294151E-02
          0                 9           1             8    3     1       0.1082863190E-04       8    3    1         0.2815853975E-03      0.1380505330E-02
          0                10           1             8    3     1       0.4859232008E-05       8    3    1         0.1263596040E-03      0.6180401706E-03

    ------------------------------------------------
       NWT REQUIRED           10 OUTER ITERATIONS 
       AND A TOTAL OF         16 INNER ITERATIONS.
    ------------------------------------------------

 OUTPUT CONTROL FOR STRESS PERIOD    7   TIME STEP    5
    PRINT BUDGET
    SAVE BUDGET
 UBUDSV SAVING "         STORAGE" ON UNIT102 AT TIME STEP     5, STRESS PERIOD    7
 UBUDSV SAVING "   CONSTANT HEAD" ON UNIT102 AT TIME STEP     5, STRESS PERIOD    7
 UBUDSV SAVING "FLOW RIGHT FACE " ON UNIT102 AT TIME STEP     5, STRESS PERIOD    7
 UBUDSV SAVING "FLOW FRONT FACE " ON UNIT102 AT TIME STEP     5, STRESS PERIOD    7

  HEAD DEP BOUNDS   PERIOD    7   STEP     5
 BOUNDARY      1   LAYER   1   ROW    13   COL     1   RATE   -0.296456    
 BOUNDARY      2   LAYER   1   ROW    14   COL     9   RATE    0.282550    



 STREAM LISTING     PERIOD      7   STEP        5

 LAYER ROW COL. STREAM  RCH.  FLOW INTO     FLOW TO   FLOW OUT OF   OVRLND.     DIRECT     STREAM       STREAM     STREAM     STREAM   STREAMBED  STREAMBED
                SEG.NO.  NO.  STRM. RCH.    AQUIFER    STRM. RCH.    RUNOFF     PRECIP       ET          HEAD       DEPTH      WIDTH   CONDCTNC.   GRADIENT

   1    1    1     1     1    6.3000E+01  3.8236E-01   6.2618E+01  0.000E+00  0.000E+00  0.000E+00  1.09461E+03  1.562E+00  1.863E+01  8.382E-02  1.521E+00
   1    2    2     1     2    6.2618E+01  5.9218E-01   6.2025E+01  0.000E+00  0.000E+00  0.000E+00  1.08961E+03  1.556E+00  1.857E+01  1.300E-01  1.519E+00
   1    3    3     1     3    6.2025E+01  5.0506E-01   6.1520E+01  0.000E+00  0.000E+00  0.000E+00  1.08397E+03  1.549E+00  1.850E+01  1.110E-01  1.516E+00
   1    3    4     1     4    6.1520E+01  4.6510E-01   6.1055E+01  0.000E+00  0.000E+00  0.000E+00  1.07895E+03  1.543E+00  1.845E+01  1.024E-01  1.514E+00
   1    4    5     2     1    5.9055E+01  0.0000E+00   5.9055E+01  0.000E+00  0.000E+00  0.000E+00  1.07396E+03  2.023E+00  1.200E+01  0.000E+00  1.674E+00
   1    5    6     2     2    5.9055E+01  0.0000E+00   5.9055E+01  0.000E+00  0.000E+00  0.000E+00  1.06853E+03  2.023E+00  1.200E+01  0.000E+00  1.674E+00
   1    6    6     2     3    5.9055E+01  0.0000E+00   5.9055E+01  0.000E+00  0.000E+00  0.000E+00  1.06382E+03  2.023E+00  1.200E+01  0.000E+00  1.674E+00
   1    7    6     2     4    5.9055E+01  0.0000E+00   5.9055E+01  0.000E+00  0.000E+00  0.000E+00  1.05910E+03  2.023E+00  1.200E+01  0.000E+00  1.674E+00
   1    8    6     2     5    5.9055E+01  0.0000E+00   5.9055E+01  0.000E+00  0.000E+00  0.000E+00  1.05438E+03  2.023E+00  1.200E+01  0.000E+00  1.674E+00
   1    3    5     3     1    2.0000E+00  2.8252E-01   1.7175E+00  0.000E+00  0.000E+00  0.000E+00  1.07555E+03  1.909E+00  9.636E+00  7.227E-02  1.955E+00
   1    3    6     3     2    1.7175E+00  2.4905E-01   1.4684E+00  0.000E+00  0.000E+00  0.000E+00  1.07264E+03  1.727E+00  8.909E+00  6.682E-02  1.864E+00
   1    3    7     3     3    1.4684E+00  1.9718E-01   1.2712E+00  0.000E+00  0.000E+00  0.000E+00  1.06987E+03  1.555E+00  8.218E+00  5.547E-02  1.777E+00
   1    4    8     3     4    1.2712E+00  2.2567E-01   1.0456E+00  0.000E+00  0.000E+00  0.000E+00  1.06682E+03  1.364E+00  7.455E+00  6.709E-02  1.682E+00
   1    5    8     3     5    1.0456E+00  1.5790E-01   8.8768E-01  0.000E+00  0.000E+00  0.000E+00  1.06362E+03  1.164E+00  6.655E+00  4.991E-02  1.582E+00
   1    6    8     3     6    8.8768E-01  5.5980E-02   8.3170E-01  0.000E+00  0.000E+00  0.000E+00  1.06158E+03  1.036E+00  6.145E+00  1.844E-02  1.518E+00
   1    5   10     4     1    1.0000E+01  0.0000E+00   1.0000E+01  0.000E+00  0.000E+00  0.000E+00  1.07837E+03  6.385E-01  1.000E+01  0.000E+00  1.213E+00
   1    5    9     4     2    1.0000E+01  0.0000E+00   1.0000E+01  0.000E+00  0.000E+00  0.000E+00  1.07155E+03  6.385E-01  1.000E+01  0.000E+00  1.213E+00
   1    6    8     4     3    1.0000E+01  0.0000E+00   1.0000E+01  0.000E+00  0.000E+00  0.000E+00  1.06382E+03  6.385E-01  1.000E+01  0.000E+00  1.213E+00
   1    6    8     5     1    1.0832E+01  2.3262E-01   1.0599E+01  0.000E+00  0.000E+00  0.000E+00  1.05869E+03  6.881E-01  1.577E+01  6.307E-02  1.229E+00
   1    7    7     5     2    1.0599E+01  2.8607E-01   1.0313E+01  0.000E+00  0.000E+00  0.000E+00  1.05418E+03  6.822E-01  1.554E+01  7.769E-02  1.227E+00
   1    8    7     5     3    1.0313E+01  1.9716E-01   1.0116E+01  0.000E+00  0.000E+00  0.000E+00  1.04993E+03  6.766E-01  1.532E+01  5.363E-02  1.226E+00
   1    8    6     5     4    1.0116E+01  1.3929E-01   9.9766E+00  0.000E+00  0.000E+00  0.000E+00  1.04692E+03  6.727E-01  1.517E+01  3.792E-02  1.224E+00
   1    9    6     6     1    6.9032E+01  0.0000E+00   6.9032E+01  0.000E+00  0.000E+00  0.000E+00  1.04497E+03  2.246E+00  1.200E+01  0.000E+00  1.749E+00
   1   10    7     6     2    6.9032E+01  0.0000E+00   6.9032E+01  0.000E+00  0.000E+00  0.000E+00  1.04043E+03  2.246E+00  1.200E+01  0.000E+00  1.749E+00
   1   11    7     6     3    6.9032E+01  0.0000E+00   6.9032E+01  0.000E+00  0.000E+00  0.000E+00  1.03588E+03  2.246E+00  1.200E+01  0.000E+00  1.749E+00
   1   12    7     6     4    6.9032E+01  0.0000E+00   6.9032E+01  0.000E+00  0.000E+00  0.000E+00  1.03134E+03  2.246E+00  1.200E+01  0.000E+00  1.749E+00
   1   13    7     6     5    6.9032E+01  0.0000E+00   6.9032E+01  0.000E+00  0.000E+00  0.000E+00  1.02816E+03  2.246E+00  1.200E+01  0.000E+00  5.497E-01
   1   14    9     7     1    1.5000E+02  1.2887E+00   1.4871E+02  0.000E+00  0.000E+00  0.000E+00  1.03987E+03  2.288E+00  5.530E+01  5.593E-01  7.680E-01
   1   13    8     7     2    1.4871E+02  1.9522E+00   1.4676E+02  0.000E+00  0.000E+00  0.000E+00  1.03478E+03  2.279E+00  5.526E+01  6.148E-01  1.059E+00
   1   13    7     7     3    1.4676E+02  1.7772E+00   1.4498E+02  0.000E+00  0.000E+00  0.000E+00  1.02969E+03  2.269E+00  5.521E+01  5.584E-01  1.061E+00
   1   13    6     8     1    2.1401E+02  1.3588E+00   2.1265E+02  0.000E+00  0.000E+00  0.000E+00  1.02509E+03  3.215E+00  4.661E+01  4.750E-01  9.536E-01
   1   13    5     8     2    2.1265E+02  4.9155E-01   2.1216E+02  0.000E+00  0.000E+00  0.000E+00  1.01883E+03  3.209E+00  4.654E+01  4.742E-01  3.455E-01
   1   13    4     8     3    2.1216E+02 -1.6353E+00   2.1380E+02  0.000E+00  0.000E+00  0.000E+00  1.01259E+03  3.213E+00  4.658E+01  4.747E+00 -1.148E-01
   1   13    3     8     4    2.1380E+02 -3.3879E+00   2.1719E+02  0.000E+00  0.000E+00  0.000E+00  1.00635E+03  3.227E+00  4.679E+01  4.768E+00 -2.369E-01
   1   13    2     8     5    2.1719E+02 -2.9307E+00   2.2012E+02  0.000E+00  0.000E+00  0.000E+00  1.00012E+03  3.244E+00  4.704E+01  4.794E+00 -2.038E-01
   1   13    1     8     6    2.2012E+02 -1.9311E+00   2.2205E+02  0.000E+00  0.000E+00  0.000E+00  9.95133E+02  3.258E+00  4.724E+01  2.888E+00 -2.229E-01
   1    6    8     9     1    6.5684E-07  0.0000E+00   6.5684E-07  0.000E+00  0.000E+00  0.000E+00  1.07850E+03  2.643E-05  4.000E+00  0.000E+00  1.000E+00



 UBDSV3 SAVING "     NETRECHARGE" ON UNIT 100 AT TIME STEP     5, STRESS PERIOD   7
 UBDSV3 SAVING "    NETDISCHARGE" ON UNIT 101 AT TIME STEP     5, STRESS PERIOD   7
 UBDSV3 SAVING "           GW ET" ON UNIT  61 AT TIME STEP     5, STRESS PERIOD   7
 UBDSV3 SAVING "    UZF RECHARGE" ON UNIT  61 AT TIME STEP     5, STRESS PERIOD   7
 UBDSV3 SAVING " SURFACE LEAKAGE" ON UNIT  61 AT TIME STEP     5, STRESS PERIOD   7
 UBDSV3 SAVING "       HORT+DUNN" ON UNIT  61 AT TIME STEP     5, STRESS PERIOD   7
 UBDSV3 SAVING "  STORAGE CHANGE" ON UNIT  61 AT TIME STEP     5, STRESS PERIOD   7


UNSATURATED ZONE PACKAGE VOLUMETRIC BUDGET FOR  TIME STEP     5 STRESS PERIOD    7
  ------------------------------------------------------------------------------



     CUMULATIVE VOLUMES      L**3       RATES FOR THIS TIME STEP      L**3/T
     ------------------                 ------------------------

           IN:                                      IN:
           ---                                      ---
        INFILTRATION =    13734585.2876          INFILTRATION =           0.8475

          OUT:                                     OUT:
          ----                                     ----
              UZF ET =   151945028.5925                UZF ET =          84.7623
        UZF RECHARGE =   379268759.5354          UZF RECHARGE =          25.9848

            IN - OUT =  -517479202.8402              IN - OUT =        -109.8997

          STORAGE:                                 STORAGE:
          --------                                 --------
      STORAGE CHANGE =  -517472458.0701        STORAGE CHANGE =        -109.8992

 PERCENT DISCREPANCY IS DIFFERENCE BETWEEN IN-OUT MINUS CHANGE IN STORAGE
 DIVIDED BY THE AVERAGE OF IN AND OUT TIMES 100

 PERCENT DISCREPANCY =          -0.00     PERCENT DISCREPANCY =          -0.00






1
  VOLUMETRIC BUDGET FOR ENTIRE MODEL AT END OF TIME STEP    5, STRESS PERIOD   7
  ------------------------------------------------------------------------------

     CUMULATIVE VOLUMES      L**3       RATES FOR THIS TIME STEP      L**3/T
     ------------------                 ------------------------

           IN:                                      IN:
           ---                                      ---
             STORAGE =     4592584.5000               STORAGE =           2.5322
       CONSTANT HEAD =           0.0000         CONSTANT HEAD =           0.0000
               WELLS =           0.0000                 WELLS =           0.0000
     HEAD DEP BOUNDS =     4664589.0000       HEAD DEP BOUNDS =           0.2826
      STREAM LEAKAGE =   171475344.0000        STREAM LEAKAGE =          10.8366
        UZF RECHARGE =   379268736.0000          UZF RECHARGE =          25.9848
               GW ET =           0.0000                 GW ET =           0.0000
     SURFACE LEAKAGE =           0.0000       SURFACE LEAKAGE =           0.0000

            TOTAL IN =   560001280.0000              TOTAL IN =          39.6362

          OUT:                                     OUT:
          ----                                     ----
             STORAGE =   411722880.0000               STORAGE =          27.2151
       CONSTANT HEAD =           0.0000         CONSTANT HEAD =           0.0000
               WELLS =           0.0000                 WELLS =           0.0000
     HEAD DEP BOUNDS =     4727313.5000       HEAD DEP BOUNDS =           0.2965
      STREAM LEAKAGE =   137411408.0000        STREAM LEAKAGE =           9.8850
        UZF RECHARGE =           0.0000          UZF RECHARGE =           0.0000
               GW ET =     6107510.0000                 GW ET =           2.2377
     SURFACE LEAKAGE =           0.0000       SURFACE LEAKAGE =           0.0000

           TOTAL OUT =   559969152.0000             TOTAL OUT =          39.6342

            IN - OUT =       32128.0000              IN - OUT =       2.0447E-03

 PERCENT DISCREPANCY =           0.01     PERCENT DISCREPANCY =           0.01






         TIME SUMMARY AT END OF TIME STEP    5 IN STRESS PERIOD    7
                    SECONDS     MINUTES      HOURS       DAYS        YEARS
                    -----------------------------------------------------------
   TIME STEP LENGTH  87600.      1460.0      24.333      1.0139     2.77588E-03
 STRESS PERIOD TIME 4.38000E+05  7300.0      121.67      5.0694     1.38794E-02
         TOTAL TIME 1.62060E+07 2.70100E+05  4501.7      187.57     0.51354    
1
 
 SOLVING FOR HEAD 
                                                   Max.-Head-Change                         Max.-Flux-Residual
  Residual-Control   Outer-Iter.   Inner-Iter.     Column Row Layer    Maximum-Head-Change  Column Row Layer    Maximum-Flux-Residual          L2-NORM 
          0                 1           2             7    6     1      -0.2892374482E+00       7    6    1        -0.1578220836E+02      0.1594404976E+02
          0                 2           2             7    6     1       0.3163234768E+00       7    6    1         0.1743506959E+02      0.1744192201E+02
          0                 3           2             7    6     1      -0.1812240006E-01       7    6    1        -0.1008565739E+01      0.1028400941E+01
          0                 4           2             7    6     1      -0.3197370829E-02       7    6    1        -0.1777789093E+00      0.1940078914E+00
          0                 5           2             7    6     1      -0.5648513391E-03       7    6    1        -0.3138029650E-01      0.4650641599E-01
          0                 6           2             8    3     1       0.1196169951E-03       7    6    1        -0.5545924514E-02      0.1632181902E-01
          0                 7           1             8    3     1       0.5367864091E-04       8    3    1         0.1395822588E-02      0.6941444020E-02
          0                 8           1             8    3     1       0.2408824661E-04       8    3    1         0.6263800948E-03      0.3081527773E-02
          0                 9           1             8    3     1       0.1080945802E-04       8    3    1         0.2810869776E-03      0.1377931107E-02
          0                10           1             8    3     1       0.4850624937E-05       8    3    1         0.1261358534E-03      0.6168933069E-03

    ------------------------------------------------
       NWT REQUIRED           10 OUTER ITERATIONS 
       AND A TOTAL OF         16 INNER ITERATIONS.
    ------------------------------------------------

 NO OUTPUT CONTROL FOR STRESS PERIOD    7   TIME STEP    6
 
 SOLVING FOR HEAD 
                                                   Max.-Head-Change                         Max.-Flux-Residual
  Residual-Control   Outer-Iter.   Inner-Iter.     Column Row Layer    Maximum-Head-Change  Column Row Layer    Maximum-Flux-Residual          L2-NORM 
          0                 1           2             7    6     1      -0.2892331258E+00       7    6    1        -0.1578199358E+02      0.1593552815E+02
          0                 2           2             7    6     1       0.3163228750E+00       7    6    1         0.1743504686E+02      0.1744180988E+02
          0                 3           2             7    6     1      -0.1812137647E-01       7    6    1        -0.1008509946E+01      0.1028283098E+01
          0                 4           2             7    6     1      -0.3197184828E-02       7    6    1        -0.1777687653E+00      0.1939421372E+00
          0                 5           2             7    6     1      -0.5648175744E-03       7    6    1        -0.3137845381E-01      0.4645854020E-01
          0                 6           2             8    3     1       0.1194043788E-03       7    6    1        -0.5545590211E-02      0.1629519958E-01
          0                 7           1             8    3     1       0.5358319353E-04       8    3    1         0.1393341365E-02      0.6928994487E-02
          0                 8           1             8    3     1       0.2404540046E-04       8    3    1         0.6252662376E-03      0.3075931231E-02
          0                 9           1             8    3     1       0.1079022598E-04       8    3    1         0.2805869799E-03      0.1375431509E-02
          0                10           1             8    3     1       0.4841992479E-05       8    3    1         0.1259114175E-03      0.6157765338E-03

    ------------------------------------------------
       NWT REQUIRED           10 OUTER ITERATIONS 
       AND A TOTAL OF         16 INNER ITERATIONS.
    ------------------------------------------------

 NO OUTPUT CONTROL FOR STRESS PERIOD    7   TIME STEP    7
 
 SOLVING FOR HEAD 
                                                   Max.-Head-Change                         Max.-Flux-Residual
  Residual-Control   Outer-Iter.   Inner-Iter.     Column Row Layer    Maximum-Head-Change  Column Row Layer    Maximum-Flux-Residual          L2-NORM 
          0                 1           2             7    6     1      -0.2892288392E+00       7    6    1        -0.1578178075E+02      0.1594495176E+02
          0                 2           2             7    6     1       0.3163222793E+00       7    6    1         0.1743502448E+02      0.1744185552E+02
          0                 3           2             7    6     1      -0.1812036381E-01       7    6    1        -0.1008454763E+01      0.1028184766E+01
          0                 4           2             7    6     1      -0.3197000754E-02       7    6    1        -0.1777587286E+00      0.1938740190E+00
          0                 5           2             7    6     1      -0.5647841503E-03       7    6    1        -0.3137663003E-01      0.4640810393E-01
          0                 6           2             8    3     1       0.1191926158E-03       7    6    1        -0.5545259254E-02      0.1626708925E-01
          0                 7           1             8    3     1       0.5348813583E-04       8    3    1         0.1390870138E-02      0.6915840799E-02
          0                 8           1             8    3     1       0.2400273251E-04       8    3    1         0.6241569434E-03      0.3070017615E-02
          0                 9           1             8    3     1       0.1077107422E-04       8    3    1         0.2800890556E-03      0.1372790541E-02
          0                10           1             8    3     1       0.4833396788E-05       8    3    1         0.1256879305E-03      0.6145979021E-03

    ------------------------------------------------
       NWT REQUIRED           10 OUTER ITERATIONS 
       AND A TOTAL OF         16 INNER ITERATIONS.
    ------------------------------------------------

 NO OUTPUT CONTROL FOR STRESS PERIOD    7   TIME STEP    8
 
 SOLVING FOR HEAD 
                                                   Max.-Head-Change                         Max.-Flux-Residual
  Residual-Control   Outer-Iter.   Inner-Iter.     Column Row Layer    Maximum-Head-Change  Column Row Layer    Maximum-Flux-Residual          L2-NORM 
          0                 1           2             7    6     1      -0.2892245890E+00       7    6    1        -0.1578156976E+02      0.1593774447E+02
          0                 2           2             7    6     1       0.3163216891E+00       7    6    1         0.1743500245E+02      0.1744175394E+02
          0                 3           2             7    6     1      -0.1811936248E-01       7    6    1        -0.1008400206E+01      0.1028067885E+01
          0                 4           2             7    6     1      -0.3196818694E-02       7    6    1        -0.1777488033E+00      0.1938073092E+00
          0                 5           2             7    6     1      -0.5647510837E-03       7    6    1        -0.3137482607E-01      0.4635924790E-01
          0                 6           2             8    3     1       0.1189816695E-03       7    6    1        -0.5544931821E-02      0.1623986530E-01
          0                 7           1             8    3     1       0.5339344666E-04       8    3    1         0.1388408443E-02      0.6903099217E-02
          0                 8           1             8    3     1       0.2396023064E-04       8    3    1         0.6230519514E-03      0.3064288372E-02
          0                 9           1             8    3     1       0.1075199788E-04       8    3    1         0.2795930779E-03      0.1370231395E-02
          0                10           1             8    3     1       0.4824835237E-05       8    3    1         0.1254653217E-03      0.6134565431E-03

    ------------------------------------------------
       NWT REQUIRED           10 OUTER ITERATIONS 
       AND A TOTAL OF         16 INNER ITERATIONS.
    ------------------------------------------------

 NO OUTPUT CONTROL FOR STRESS PERIOD    7   TIME STEP    9
 
 SOLVING FOR HEAD 
                                                   Max.-Head-Change                         Max.-Flux-Residual
  Residual-Control   Outer-Iter.   Inner-Iter.     Column Row Layer    Maximum-Head-Change  Column Row Layer    Maximum-Flux-Residual          L2-NORM 
          0                 1           2             7    6     1      -0.2892202712E+00       7    6    1        -0.1578135518E+02      0.1593152510E+02
          0                 2           2             7    6     1       0.3163211127E+00       7    6    1         0.1743498116E+02      0.1744166289E+02
          0                 3           2             7    6     1      -0.1811834414E-01       7    6    1        -0.1008344709E+01      0.1027953191E+01
          0                 4           2             7    6     1      -0.3196633603E-02       7    6    1        -0.1777387105E+00      0.1937420574E+00
          0                 5           2             7    6     1      -0.5647174766E-03       7    6    1        -0.3137299224E-01      0.4631157646E-01
          0                 6           2             8    3     1       0.1187700406E-03       7    6    1        -0.5544599067E-02      0.1621330036E-01
          0                 7           1             8    3     1       0.5329846174E-04       8    3    1         0.1385938834E-02      0.6890664370E-02
          0                 8           1             8    3     1       0.2391760072E-04       8    3    1         0.6219435340E-03      0.3058696534E-02
          0                 9           1             8    3     1       0.1073286626E-04       8    3    1         0.2790956192E-03      0.1367733487E-02
          0                10           1             8    3     1       0.4816249550E-05       8    3    1         0.1252420718E-03      0.6123421836E-03

    ------------------------------------------------
       NWT REQUIRED           10 OUTER ITERATIONS 
       AND A TOTAL OF         16 INNER ITERATIONS.
    ------------------------------------------------

 OUTPUT CONTROL FOR STRESS PERIOD    7   TIME STEP   10
    PRINT BUDGET
    SAVE BUDGET
 UBUDSV SAVING "         STORAGE" ON UNIT102 AT TIME STEP    10, STRESS PERIOD    7
 UBUDSV SAVING "   CONSTANT HEAD" ON UNIT102 AT TIME STEP    10, STRESS PERIOD    7
 UBUDSV SAVING "FLOW RIGHT FACE " ON UNIT102 AT TIME STEP    10, STRESS PERIOD    7
 UBUDSV SAVING "FLOW FRONT FACE " ON UNIT102 AT TIME STEP    10, STRESS PERIOD    7

  HEAD DEP BOUNDS   PERIOD    7   STEP    10
 BOUNDARY      1   LAYER   1   ROW    13   COL     1   RATE   -0.294643    
 BOUNDARY      2   LAYER   1   ROW    14   COL     9   RATE    0.282486    



 STREAM LISTING     PERIOD      7   STEP       10

 LAYER ROW COL. STREAM  RCH.  FLOW INTO     FLOW TO   FLOW OUT OF   OVRLND.     DIRECT     STREAM       STREAM     STREAM     STREAM   STREAMBED  STREAMBED
                SEG.NO.  NO.  STRM. RCH.    AQUIFER    STRM. RCH.    RUNOFF     PRECIP       ET          HEAD       DEPTH      WIDTH   CONDCTNC.   GRADIENT

   1    1    1     1     1    6.3000E+01  3.8236E-01   6.2618E+01  0.000E+00  0.000E+00  0.000E+00  1.09461E+03  1.562E+00  1.863E+01  8.382E-02  1.521E+00
   1    2    2     1     2    6.2618E+01  5.9218E-01   6.2025E+01  0.000E+00  0.000E+00  0.000E+00  1.08961E+03  1.556E+00  1.857E+01  1.300E-01  1.519E+00
   1    3    3     1     3    6.2025E+01  5.0506E-01   6.1520E+01  0.000E+00  0.000E+00  0.000E+00  1.08397E+03  1.549E+00  1.850E+01  1.110E-01  1.516E+00
   1    3    4     1     4    6.1520E+01  4.6510E-01   6.1055E+01  0.000E+00  0.000E+00  0.000E+00  1.07895E+03  1.543E+00  1.845E+01  1.024E-01  1.514E+00
   1    4    5     2     1    5.9055E+01  0.0000E+00   5.9055E+01  0.000E+00  0.000E+00  0.000E+00  1.07396E+03  2.023E+00  1.200E+01  0.000E+00  1.674E+00
   1    5    6     2     2    5.9055E+01  0.0000E+00   5.9055E+01  0.000E+00  0.000E+00  0.000E+00  1.06853E+03  2.023E+00  1.200E+01  0.000E+00  1.674E+00
   1    6    6     2     3    5.9055E+01  0.0000E+00   5.9055E+01  0.000E+00  0.000E+00  0.000E+00  1.06382E+03  2.023E+00  1.200E+01  0.000E+00  1.674E+00
   1    7    6     2     4    5.9055E+01  0.0000E+00   5.9055E+01  0.000E+00  0.000E+00  0.000E+00  1.05910E+03  2.023E+00  1.200E+01  0.000E+00  1.674E+00
   1    8    6     2     5    5.9055E+01  0.0000E+00   5.9055E+01  0.000E+00  0.000E+00  0.000E+00  1.05438E+03  2.023E+00  1.200E+01  0.000E+00  1.674E+00
   1    3    5     3     1    2.0000E+00  2.8252E-01   1.7175E+00  0.000E+00  0.000E+00  0.000E+00  1.07555E+03  1.909E+00  9.636E+00  7.227E-02  1.955E+00
   1    3    6     3     2    1.7175E+00  2.4905E-01   1.4684E+00  0.000E+00  0.000E+00  0.000E+00  1.07264E+03  1.727E+00  8.909E+00  6.682E-02  1.864E+00
   1    3    7     3     3    1.4684E+00  1.9718E-01   1.2712E+00  0.000E+00  0.000E+00  0.000E+00  1.06987E+03  1.555E+00  8.218E+00  5.547E-02  1.777E+00
   1    4    8     3     4    1.2712E+00  2.2567E-01   1.0456E+00  0.000E+00  0.000E+00  0.000E+00  1.06682E+03  1.364E+00  7.455E+00  6.709E-02  1.682E+00
   1    5    8     3     5    1.0456E+00  1.5790E-01   8.8768E-01  0.000E+00  0.000E+00  0.000E+00  1.06362E+03  1.164E+00  6.655E+00  4.991E-02  1.582E+00
   1    6    8     3     6    8.8768E-01  5.5980E-02   8.3170E-01  0.000E+00  0.000E+00  0.000E+00  1.06158E+03  1.036E+00  6.145E+00  1.844E-02  1.518E+00
   1    5   10     4     1    1.0000E+01  0.0000E+00   1.0000E+01  0.000E+00  0.000E+00  0.000E+00  1.07837E+03  6.385E-01  1.000E+01  0.000E+00  1.213E+00
   1    5    9     4     2    1.0000E+01  0.0000E+00   1.0000E+01  0.000E+00  0.000E+00  0.000E+00  1.07155E+03  6.385E-01  1.000E+01  0.000E+00  1.213E+00
   1    6    8     4     3    1.0000E+01  0.0000E+00   1.0000E+01  0.000E+00  0.000E+00  0.000E+00  1.06382E+03  6.385E-01  1.000E+01  0.000E+00  1.213E+00
   1    6    8     5     1    1.0832E+01  2.3262E-01   1.0599E+01  0.000E+00  0.000E+00  0.000E+00  1.05869E+03  6.881E-01  1.577E+01  6.307E-02  1.229E+00
   1    7    7     5     2    1.0599E+01  2.8607E-01   1.0313E+01  0.000E+00  0.000E+00  0.000E+00  1.05418E+03  6.822E-01  1.554E+01  7.769E-02  1.227E+00
   1    8    7     5     3    1.0313E+01  1.9716E-01   1.0116E+01  0.000E+00  0.000E+00  0.000E+00  1.04993E+03  6.766E-01  1.532E+01  5.363E-02  1.226E+00
   1    8    6     5     4    1.0116E+01  1.3929E-01   9.9766E+00  0.000E+00  0.000E+00  0.000E+00  1.04692E+03  6.727E-01  1.517E+01  3.792E-02  1.224E+00
   1    9    6     6     1    6.9032E+01  0.0000E+00   6.9032E+01  0.000E+00  0.000E+00  0.000E+00  1.04497E+03  2.246E+00  1.200E+01  0.000E+00  1.749E+00
   1   10    7     6     2    6.9032E+01  0.0000E+00   6.9032E+01  0.000E+00  0.000E+00  0.000E+00  1.04043E+03  2.246E+00  1.200E+01  0.000E+00  1.749E+00
   1   11    7     6     3    6.9032E+01  0.0000E+00   6.9032E+01  0.000E+00  0.000E+00  0.000E+00  1.03588E+03  2.246E+00  1.200E+01  0.000E+00  1.749E+00
   1   12    7     6     4    6.9032E+01  0.0000E+00   6.9032E+01  0.000E+00  0.000E+00  0.000E+00  1.03134E+03  2.246E+00  1.200E+01  0.000E+00  1.749E+00
   1   13    7     6     5    6.9032E+01  0.0000E+00   6.9032E+01  0.000E+00  0.000E+00  0.000E+00  1.02816E+03  2.246E+00  1.200E+01  0.000E+00  5.477E-01
   1   14    9     7     1    1.5000E+02  1.2877E+00   1.4871E+02  0.000E+00  0.000E+00  0.000E+00  1.03987E+03  2.288E+00  5.530E+01  5.593E-01  7.675E-01
   1   13    8     7     2    1.4871E+02  1.9500E+00   1.4676E+02  0.000E+00  0.000E+00  0.000E+00  1.03478E+03  2.279E+00  5.526E+01  6.148E-01  1.057E+00
   1   13    7     7     3    1.4676E+02  1.7739E+00   1.4499E+02  0.000E+00  0.000E+00  0.000E+00  1.02969E+03  2.269E+00  5.521E+01  5.584E-01  1.059E+00
   1   13    6     8     1    2.1402E+02  1.3588E+00   2.1266E+02  0.000E+00  0.000E+00  0.000E+00  1.02509E+03  3.215E+00  4.661E+01  4.750E-01  9.536E-01
   1   13    5     8     2    2.1266E+02  5.0782E-01   2.1215E+02  0.000E+00  0.000E+00  0.000E+00  1.01883E+03  3.209E+00  4.654E+01  4.742E-01  3.570E-01
   1   13    4     8     3    2.1215E+02 -1.4132E+00   2.1357E+02  0.000E+00  0.000E+00  0.000E+00  1.01259E+03  3.212E+00  4.657E+01  4.746E+00 -9.926E-02
   1   13    3     8     4    2.1357E+02 -3.1716E+00   2.1674E+02  0.000E+00  0.000E+00  0.000E+00  1.00635E+03  3.225E+00  4.676E+01  4.765E+00 -2.219E-01
   1   13    2     8     5    2.1674E+02 -2.7840E+00   2.1952E+02  0.000E+00  0.000E+00  0.000E+00  1.00012E+03  3.242E+00  4.700E+01  4.790E+00 -1.938E-01
   1   13    1     8     6    2.1952E+02 -1.8018E+00   2.2132E+02  0.000E+00  0.000E+00  0.000E+00  9.95129E+02  3.254E+00  4.719E+01  2.885E+00 -2.082E-01
   1    6    8     9     1    6.5684E-07  0.0000E+00   6.5684E-07  0.000E+00  0.000E+00  0.000E+00  1.07850E+03  2.643E-05  4.000E+00  0.000E+00  1.000E+00



 UBDSV3 SAVING "     NETRECHARGE" ON UNIT 100 AT TIME STEP    10, STRESS PERIOD   7
 UBDSV3 SAVING "    NETDISCHARGE" ON UNIT 101 AT TIME STEP    10, STRESS PERIOD   7
 UBDSV3 SAVING "           GW ET" ON UNIT  61 AT TIME STEP    10, STRESS PERIOD   7
 UBDSV3 SAVING "    UZF RECHARGE" ON UNIT  61 AT TIME STEP    10, STRESS PERIOD   7
 UBDSV3 SAVING " SURFACE LEAKAGE" ON UNIT  61 AT TIME STEP    10, STRESS PERIOD   7
 UBDSV3 SAVING "       HORT+DUNN" ON UNIT  61 AT TIME STEP    10, STRESS PERIOD   7
 UBDSV3 SAVING "  STORAGE CHANGE" ON UNIT  61 AT TIME STEP    10, STRESS PERIOD   7


UNSATURATED ZONE PACKAGE VOLUMETRIC BUDGET FOR  TIME STEP    10 STRESS PERIOD    7
  ------------------------------------------------------------------------------



     CUMULATIVE VOLUMES      L**3       RATES FOR THIS TIME STEP      L**3/T
     ------------------                 ------------------------

           IN:                                      IN:
           ---                                      ---
        INFILTRATION =    14105790.5177          INFILTRATION =           0.8475

          OUT:                                     OUT:
          ----                                     ----
              UZF ET =   188875294.5145                UZF ET =          84.0162
        UZF RECHARGE =   390612681.6064          UZF RECHARGE =          25.8411

            IN - OUT =  -565382185.6032              IN - OUT =        -109.0098

          STORAGE:                                 STORAGE:
          --------                                 --------
      STORAGE CHANGE =  -565375311.5777        STORAGE CHANGE =        -109.0096

 PERCENT DISCREPANCY IS DIFFERENCE BETWEEN IN-OUT MINUS CHANGE IN STORAGE
 DIVIDED BY THE AVERAGE OF IN AND OUT TIMES 100

 PERCENT DISCREPANCY =          -0.00     PERCENT DISCREPANCY =          -0.00






1
  VOLUMETRIC BUDGET FOR ENTIRE MODEL AT END OF TIME STEP   10, STRESS PERIOD   7
  ------------------------------------------------------------------------------

     CUMULATIVE VOLUMES      L**3       RATES FOR THIS TIME STEP      L**3/T
     ------------------                 ------------------------

           IN:                                      IN:
           ---                                      ---
             STORAGE =     5644693.5000               STORAGE =           2.3478
       CONSTANT HEAD =           0.0000         CONSTANT HEAD =           0.0000
               WELLS =           0.0000                 WELLS =           0.0000
     HEAD DEP BOUNDS =     4788329.0000       HEAD DEP BOUNDS =           0.2825
      STREAM LEAKAGE =   176222848.0000        STREAM LEAKAGE =          10.8464
        UZF RECHARGE =   390612672.0000          UZF RECHARGE =          25.8411
               GW ET =           0.0000                 GW ET =           0.0000
     SURFACE LEAKAGE =           0.0000       SURFACE LEAKAGE =           0.0000

            TOTAL IN =   577268544.0000              TOTAL IN =          39.3178

          OUT:                                     OUT:
          ----                                     ----
             STORAGE =   423552128.0000               STORAGE =          26.8658
       CONSTANT HEAD =           0.0000         CONSTANT HEAD =           0.0000
               WELLS =           0.0000                 WELLS =           0.0000
     HEAD DEP BOUNDS =     4856669.0000       HEAD DEP BOUNDS =           0.2946
      STREAM LEAKAGE =   141542976.0000        STREAM LEAKAGE =           9.1706
        UZF RECHARGE =           0.0000          UZF RECHARGE =           0.0000
               GW ET =     7283730.5000                 GW ET =           2.9847
     SURFACE LEAKAGE =           0.0000       SURFACE LEAKAGE =           0.0000

           TOTAL OUT =   577235456.0000             TOTAL OUT =          39.3157

            IN - OUT =       33088.0000              IN - OUT =       2.0180E-03

 PERCENT DISCREPANCY =           0.01     PERCENT DISCREPANCY =           0.01






         TIME SUMMARY AT END OF TIME STEP   10 IN STRESS PERIOD    7
                    SECONDS     MINUTES      HOURS       DAYS        YEARS
                    -----------------------------------------------------------
   TIME STEP LENGTH  87600.      1460.0      24.333      1.0139     2.77588E-03
 STRESS PERIOD TIME 8.76000E+05  14600.      243.33      10.139     2.77588E-02
         TOTAL TIME 1.66440E+07 2.77400E+05  4623.3      192.64     0.52742    
1
 
 SOLVING FOR HEAD 
                                                   Max.-Head-Change                         Max.-Flux-Residual
  Residual-Control   Outer-Iter.   Inner-Iter.     Column Row Layer    Maximum-Head-Change  Column Row Layer    Maximum-Flux-Residual          L2-NORM 
          0                 1           2             7    6     1      -0.2892159610E+00       7    6    1        -0.1578114077E+02      0.1592610548E+02
          0                 2           2             7    6     1       0.3163205036E+00       7    6    1         0.1743495813E+02      0.1744157726E+02
          0                 3           2             7    6     1      -0.1811733593E-01       7    6    1        -0.1008289770E+01      0.1027841354E+01
          0                 4           2             7    6     1      -0.3196450329E-02       7    6    1        -0.1777287178E+00      0.1936784841E+00
          0                 5           2             7    6     1      -0.5646841958E-03       7    6    1        -0.3137117639E-01      0.4626520420E-01
          0                 6           2             8    3     1       0.1185593433E-03       7    6    1        -0.5544269534E-02      0.1618745503E-01
          0                 7           1             8    3     1       0.5320390164E-04       8    3    1         0.1383480139E-02      0.6878564636E-02
          0                 8           1             8    3     1       0.2387516488E-04       8    3    1         0.6208400964E-03      0.3053255095E-02
          0                 9           1             8    3     1       0.1071382306E-04       8    3    1         0.2786004275E-03      0.1365302594E-02
          0                10           1             8    3     1       0.4807704256E-05       8    3    1         0.1250198522E-03      0.6112565654E-03

    ------------------------------------------------
       NWT REQUIRED           10 OUTER ITERATIONS 
       AND A TOTAL OF         16 INNER ITERATIONS.
    ------------------------------------------------

 NO OUTPUT CONTROL FOR STRESS PERIOD    7   TIME STEP   11
 
 SOLVING FOR HEAD 
                                                   Max.-Head-Change                         Max.-Flux-Residual
  Residual-Control   Outer-Iter.   Inner-Iter.     Column Row Layer    Maximum-Head-Change  Column Row Layer    Maximum-Flux-Residual          L2-NORM 
          0                 1           2             7    6     1      -0.2892118252E+00       7    6    1        -0.1578093605E+02      0.1592125908E+02
          0                 2           2             7    6     1       0.3163199325E+00       7    6    1         0.1743493718E+02      0.1744149972E+02
          0                 3           2             7    6     1      -0.1811636890E-01       7    6    1        -0.1008237124E+01      0.1027734336E+01
          0                 4           2             7    6     1      -0.3196274310E-02       7    6    1        -0.1777191288E+00      0.1936168626E+00
          0                 5           2             7    6     1      -0.5646521947E-03       7    6    1        -0.3136943169E-01      0.4622008886E-01
          0                 6           2             8    3     1       0.1183479794E-03       7    6    1        -0.5543952544E-02      0.1616227907E-01
          0                 7           1             8    3     1       0.5310904940E-04       8    3    1         0.1381013690E-02      0.6866773725E-02
          0                 8           1             8    3     1       0.2383260048E-04       8    3    1         0.6197332520E-03      0.3047951820E-02
          0                 9           1             8    3     1       0.1069472345E-04       8    3    1         0.2781037411E-03      0.1362933342E-02
          0                10           1             8    3     1       0.4799133701E-05       8    3    1         0.1247969763E-03      0.6101989724E-03

    ------------------------------------------------
       NWT REQUIRED           10 OUTER ITERATIONS 
       AND A TOTAL OF         16 INNER ITERATIONS.
    ------------------------------------------------

 NO OUTPUT CONTROL FOR STRESS PERIOD    7   TIME STEP   12
 
 SOLVING FOR HEAD 
                                                   Max.-Head-Change                         Max.-Flux-Residual
  Residual-Control   Outer-Iter.   Inner-Iter.     Column Row Layer    Maximum-Head-Change  Column Row Layer    Maximum-Flux-Residual          L2-NORM 
          0                 1           2             7    6     1      -0.2892027914E+00       7    6    1        -0.1578046411E+02      0.1591681445E+02
          0                 2           2             7    6     1       0.3163141127E+00       7    6    1         0.1743462694E+02      0.1744113852E+02
          0                 3           2             7    6     1      -0.1811502731E-01       7    6    1        -0.1008163640E+01      0.1027608309E+01
          0                 4           2             7    6     1      -0.3196032171E-02       7    6    1        -0.1777058647E+00      0.1935531246E+00
          0                 5           2             7    6     1      -0.5646085061E-03       7    6    1        -0.3136703791E-01      0.4617560851E-01
          0                 6           2             8    3     1       0.1181390625E-03       7    6    1        -0.5543520775E-02      0.1613766905E-01
          0                 7           1             8    3     1       0.5301529077E-04       8    3    1         0.1378575776E-02      0.6855262261E-02
          0                 8           1             8    3     1       0.2379052455E-04       8    3    1         0.6186391588E-03      0.3042775105E-02
          0                 9           1             8    3     1       0.1067584207E-04       8    3    1         0.2776127559E-03      0.1360621054E-02
          0                10           1             8    3     1       0.4790661189E-05       8    3    1         0.1245766521E-03      0.6091674200E-03

    ------------------------------------------------
       NWT REQUIRED           10 OUTER ITERATIONS 
       AND A TOTAL OF         16 INNER ITERATIONS.
    ------------------------------------------------

 NO OUTPUT CONTROL FOR STRESS PERIOD    7   TIME STEP   13
 
 SOLVING FOR HEAD 
                                                   Max.-Head-Change                         Max.-Flux-Residual
  Residual-Control   Outer-Iter.   Inner-Iter.     Column Row Layer    Maximum-Head-Change  Column Row Layer    Maximum-Flux-Residual          L2-NORM 
          0                 1           2             7    6     1      -0.2891992366E+00       7    6    1        -0.1578029077E+02      0.1591315250E+02
          0                 2           2             7    6     1       0.3163142264E+00       7    6    1         0.1743464382E+02      0.1744110921E+02
          0                 3           2             7    6     1      -0.1811409991E-01       7    6    1        -0.1008113195E+01      0.1027507085E+01
          0                 4           2             7    6     1      -0.3195863170E-02       7    6    1        -0.1776966650E+00      0.1934944120E+00
          0                 5           2             7    6     1      -0.5645777495E-03       7    6    1        -0.3136536219E-01      0.4613259156E-01
          0                 6           2             8    3     1       0.1179280491E-03       7    6    1        -0.5543216030E-02      0.1611363931E-01
          0                 7           1             8    3     1       0.5292061124E-04       8    3    1         0.1376113491E-02      0.6844003617E-02
          0                 8           1             8    3     1       0.2374804506E-04       8    3    1         0.6175343696E-03      0.3037709444E-02
          0                 9           1             8    3     1       0.1065678323E-04       8    3    1         0.2771170701E-03      0.1358356834E-02
          0                10           1             8    3     1       0.4782111268E-05       8    3    1         0.1243542625E-03      0.6081563178E-03

    ------------------------------------------------
       NWT REQUIRED           10 OUTER ITERATIONS 
       AND A TOTAL OF         16 INNER ITERATIONS.
    ------------------------------------------------

 NO OUTPUT CONTROL FOR STRESS PERIOD    7   TIME STEP   14
 
 SOLVING FOR HEAD 
                                                   Max.-Head-Change                         Max.-Flux-Residual
  Residual-Control   Outer-Iter.   Inner-Iter.     Column Row Layer    Maximum-Head-Change  Column Row Layer    Maximum-Flux-Residual          L2-NORM 
          0                 1           2             7    6     1      -0.2891956319E+00       7    6    1        -0.1578011474E+02      0.1590995731E+02
          0                 2           2             7    6     1       0.3163142511E+00       7    6    1         0.1743465580E+02      0.1744108020E+02
          0                 3           2             7    6     1      -0.1811317720E-01       7    6    1        -0.1008063012E+01      0.1027408333E+01
          0                 4           2             7    6     1      -0.3195694990E-02       7    6    1        -0.1776875112E+00      0.1934370786E+00
          0                 5           2             7    6     1      -0.5645471351E-03       7    6    1        -0.3136369448E-01      0.4609060522E-01
          0                 6           2             8    3     1       0.1177195707E-03       7    6    1        -0.5542912696E-02      0.1609017729E-01
          0                 7           1             8    3     1       0.5282706696E-04       8    3    1         0.1373680783E-02      0.6833008491E-02
          0                 8           1             8    3     1       0.2370607331E-04       8    3    1         0.6164428198E-03      0.3032762536E-02
          0                 9           1             8    3     1       0.1063795212E-04       8    3    1         0.2766273149E-03      0.1356147068E-02
          0                10           1             8    3     1       0.4773662642E-05       8    3    1         0.1241345294E-03      0.6072395302E-03

    ------------------------------------------------
       NWT REQUIRED           10 OUTER ITERATIONS 
       AND A TOTAL OF         16 INNER ITERATIONS.
    ------------------------------------------------

 OUTPUT CONTROL FOR STRESS PERIOD    7   TIME STEP   15
    PRINT BUDGET
    PRINT HEAD FOR ALL LAYERS
    SAVE HEAD FOR ALL LAYERS
    SAVE BUDGET
 UBUDSV SAVING "         STORAGE" ON UNIT102 AT TIME STEP    15, STRESS PERIOD    7
 UBUDSV SAVING "   CONSTANT HEAD" ON UNIT102 AT TIME STEP    15, STRESS PERIOD    7
 UBUDSV SAVING "FLOW RIGHT FACE " ON UNIT102 AT TIME STEP    15, STRESS PERIOD    7
 UBUDSV SAVING "FLOW FRONT FACE " ON UNIT102 AT TIME STEP    15, STRESS PERIOD    7

  HEAD DEP BOUNDS   PERIOD    7   STEP    15
 BOUNDARY      1   LAYER   1   ROW    13   COL     1   RATE   -0.293240    
 BOUNDARY      2   LAYER   1   ROW    14   COL     9   RATE    0.282429    



 STREAM LISTING     PERIOD      7   STEP       15

 LAYER ROW COL. STREAM  RCH.  FLOW INTO     FLOW TO   FLOW OUT OF   OVRLND.     DIRECT     STREAM       STREAM     STREAM     STREAM   STREAMBED  STREAMBED
                SEG.NO.  NO.  STRM. RCH.    AQUIFER    STRM. RCH.    RUNOFF     PRECIP       ET          HEAD       DEPTH      WIDTH   CONDCTNC.   GRADIENT

   1    1    1     1     1    6.3000E+01  3.8236E-01   6.2618E+01  0.000E+00  0.000E+00  0.000E+00  1.09461E+03  1.562E+00  1.863E+01  8.382E-02  1.521E+00
   1    2    2     1     2    6.2618E+01  5.9218E-01   6.2025E+01  0.000E+00  0.000E+00  0.000E+00  1.08961E+03  1.556E+00  1.857E+01  1.300E-01  1.519E+00
   1    3    3     1     3    6.2025E+01  5.0506E-01   6.1520E+01  0.000E+00  0.000E+00  0.000E+00  1.08397E+03  1.549E+00  1.850E+01  1.110E-01  1.516E+00
   1    3    4     1     4    6.1520E+01  4.6510E-01   6.1055E+01  0.000E+00  0.000E+00  0.000E+00  1.07895E+03  1.543E+00  1.845E+01  1.024E-01  1.514E+00
   1    4    5     2     1    5.9055E+01  0.0000E+00   5.9055E+01  0.000E+00  0.000E+00  0.000E+00  1.07396E+03  2.023E+00  1.200E+01  0.000E+00  1.674E+00
   1    5    6     2     2    5.9055E+01  0.0000E+00   5.9055E+01  0.000E+00  0.000E+00  0.000E+00  1.06853E+03  2.023E+00  1.200E+01  0.000E+00  1.674E+00
   1    6    6     2     3    5.9055E+01  0.0000E+00   5.9055E+01  0.000E+00  0.000E+00  0.000E+00  1.06382E+03  2.023E+00  1.200E+01  0.000E+00  1.674E+00
   1    7    6     2     4    5.9055E+01  0.0000E+00   5.9055E+01  0.000E+00  0.000E+00  0.000E+00  1.05910E+03  2.023E+00  1.200E+01  0.000E+00  1.674E+00
   1    8    6     2     5    5.9055E+01  0.0000E+00   5.9055E+01  0.000E+00  0.000E+00  0.000E+00  1.05438E+03  2.023E+00  1.200E+01  0.000E+00  1.674E+00
   1    3    5     3     1    2.0000E+00  2.8252E-01   1.7175E+00  0.000E+00  0.000E+00  0.000E+00  1.07555E+03  1.909E+00  9.636E+00  7.227E-02  1.955E+00
   1    3    6     3     2    1.7175E+00  2.4905E-01   1.4684E+00  0.000E+00  0.000E+00  0.000E+00  1.07264E+03  1.727E+00  8.909E+00  6.682E-02  1.864E+00
   1    3    7     3     3    1.4684E+00  1.9718E-01   1.2712E+00  0.000E+00  0.000E+00  0.000E+00  1.06987E+03  1.555E+00  8.218E+00  5.547E-02  1.777E+00
   1    4    8     3     4    1.2712E+00  2.2567E-01   1.0456E+00  0.000E+00  0.000E+00  0.000E+00  1.06682E+03  1.364E+00  7.455E+00  6.709E-02  1.682E+00
   1    5    8     3     5    1.0456E+00  1.5790E-01   8.8768E-01  0.000E+00  0.000E+00  0.000E+00  1.06362E+03  1.164E+00  6.655E+00  4.991E-02  1.582E+00
   1    6    8     3     6    8.8768E-01  5.5980E-02   8.3170E-01  0.000E+00  0.000E+00  0.000E+00  1.06158E+03  1.036E+00  6.145E+00  1.844E-02  1.518E+00
   1    5   10     4     1    1.0000E+01  0.0000E+00   1.0000E+01  0.000E+00  0.000E+00  0.000E+00  1.07837E+03  6.385E-01  1.000E+01  0.000E+00  1.213E+00
   1    5    9     4     2    1.0000E+01  0.0000E+00   1.0000E+01  0.000E+00  0.000E+00  0.000E+00  1.07155E+03  6.385E-01  1.000E+01  0.000E+00  1.213E+00
   1    6    8     4     3    1.0000E+01  0.0000E+00   1.0000E+01  0.000E+00  0.000E+00  0.000E+00  1.06382E+03  6.385E-01  1.000E+01  0.000E+00  1.213E+00
   1    6    8     5     1    1.0832E+01  2.3262E-01   1.0599E+01  0.000E+00  0.000E+00  0.000E+00  1.05869E+03  6.881E-01  1.577E+01  6.307E-02  1.229E+00
   1    7    7     5     2    1.0599E+01  2.8607E-01   1.0313E+01  0.000E+00  0.000E+00  0.000E+00  1.05418E+03  6.822E-01  1.554E+01  7.769E-02  1.227E+00
   1    8    7     5     3    1.0313E+01  1.9716E-01   1.0116E+01  0.000E+00  0.000E+00  0.000E+00  1.04993E+03  6.766E-01  1.532E+01  5.363E-02  1.226E+00
   1    8    6     5     4    1.0116E+01  1.3929E-01   9.9766E+00  0.000E+00  0.000E+00  0.000E+00  1.04692E+03  6.727E-01  1.517E+01  3.792E-02  1.224E+00
   1    9    6     6     1    6.9032E+01  0.0000E+00   6.9032E+01  0.000E+00  0.000E+00  0.000E+00  1.04497E+03  2.246E+00  1.200E+01  0.000E+00  1.749E+00
   1   10    7     6     2    6.9032E+01  0.0000E+00   6.9032E+01  0.000E+00  0.000E+00  0.000E+00  1.04043E+03  2.246E+00  1.200E+01  0.000E+00  1.749E+00
   1   11    7     6     3    6.9032E+01  0.0000E+00   6.9032E+01  0.000E+00  0.000E+00  0.000E+00  1.03588E+03  2.246E+00  1.200E+01  0.000E+00  1.749E+00
   1   12    7     6     4    6.9032E+01  0.0000E+00   6.9032E+01  0.000E+00  0.000E+00  0.000E+00  1.03134E+03  2.246E+00  1.200E+01  0.000E+00  1.749E+00
   1   13    7     6     5    6.9032E+01  0.0000E+00   6.9032E+01  0.000E+00  0.000E+00  0.000E+00  1.02816E+03  2.246E+00  1.200E+01  0.000E+00  5.459E-01
   1   14    9     7     1    1.5000E+02  1.2869E+00   1.4871E+02  0.000E+00  0.000E+00  0.000E+00  1.03987E+03  2.288E+00  5.530E+01  5.593E-01  7.670E-01
   1   13    8     7     2    1.4871E+02  1.9479E+00   1.4677E+02  0.000E+00  0.000E+00  0.000E+00  1.03478E+03  2.279E+00  5.526E+01  6.148E-01  1.056E+00
   1   13    7     7     3    1.4677E+02  1.7708E+00   1.4499E+02  0.000E+00  0.000E+00  0.000E+00  1.02969E+03  2.269E+00  5.521E+01  5.584E-01  1.057E+00
   1   13    6     8     1    2.1403E+02  1.3595E+00   2.1267E+02  0.000E+00  0.000E+00  0.000E+00  1.02509E+03  3.215E+00  4.661E+01  4.750E-01  9.541E-01
   1   13    5     8     2    2.1267E+02  5.3107E-01   2.1214E+02  0.000E+00  0.000E+00  0.000E+00  1.01883E+03  3.209E+00  4.653E+01  4.742E-01  3.733E-01
   1   13    4     8     3    2.1214E+02 -1.2729E+00   2.1341E+02  0.000E+00  0.000E+00  0.000E+00  1.01259E+03  3.211E+00  4.657E+01  4.745E+00 -8.941E-02
   1   13    3     8     4    2.1341E+02 -3.0371E+00   2.1645E+02  0.000E+00  0.000E+00  0.000E+00  1.00635E+03  3.224E+00  4.674E+01  4.763E+00 -2.125E-01
   1   13    2     8     5    2.1645E+02 -2.6821E+00   2.1913E+02  0.000E+00  0.000E+00  0.000E+00  1.00011E+03  3.240E+00  4.697E+01  4.787E+00 -1.868E-01
   1   13    1     8     6    2.1913E+02 -1.7011E+00   2.2083E+02  0.000E+00  0.000E+00  0.000E+00  9.95127E+02  3.252E+00  4.715E+01  2.883E+00 -1.967E-01
   1    6    8     9     1    1.7270E-04  0.0000E+00   1.7270E-04  0.000E+00  0.000E+00  0.000E+00  1.07850E+03  7.480E-04  4.000E+00  0.000E+00  1.000E+00



 UBDSV3 SAVING "     NETRECHARGE" ON UNIT 100 AT TIME STEP    15, STRESS PERIOD   7
 UBDSV3 SAVING "    NETDISCHARGE" ON UNIT 101 AT TIME STEP    15, STRESS PERIOD   7
 UBDSV3 SAVING "           GW ET" ON UNIT  61 AT TIME STEP    15, STRESS PERIOD   7
 UBDSV3 SAVING "    UZF RECHARGE" ON UNIT  61 AT TIME STEP    15, STRESS PERIOD   7
 UBDSV3 SAVING " SURFACE LEAKAGE" ON UNIT  61 AT TIME STEP    15, STRESS PERIOD   7
 UBDSV3 SAVING "       HORT+DUNN" ON UNIT  61 AT TIME STEP    15, STRESS PERIOD   7
 UBDSV3 SAVING "  STORAGE CHANGE" ON UNIT  61 AT TIME STEP    15, STRESS PERIOD   7


UNSATURATED ZONE PACKAGE VOLUMETRIC BUDGET FOR  TIME STEP    15 STRESS PERIOD    7
  ------------------------------------------------------------------------------



     CUMULATIVE VOLUMES      L**3       RATES FOR THIS TIME STEP      L**3/T
     ------------------                 ------------------------

           IN:                                      IN:
           ---                                      ---
        INFILTRATION =    14477071.2026          INFILTRATION =           0.8477

          OUT:                                     OUT:
          ----                                     ----
              UZF ET =   225674683.6279                UZF ET =          84.0173
        UZF RECHARGE =   401895091.2188          UZF RECHARGE =          25.7079

            IN - OUT =  -613092703.6442              IN - OUT =        -108.8775

          STORAGE:                                 STORAGE:
          --------                                 --------
      STORAGE CHANGE =  -613085748.4343        STORAGE CHANGE =        -108.8773

 PERCENT DISCREPANCY IS DIFFERENCE BETWEEN IN-OUT MINUS CHANGE IN STORAGE
 DIVIDED BY THE AVERAGE OF IN AND OUT TIMES 100

 PERCENT DISCREPANCY =          -0.00     PERCENT DISCREPANCY =          -0.00






1
              HEAD IN LAYER   1 AT END OF TIME STEP    15 IN STRESS PERIOD    7
  -----------------------------------------------------------------------------

           1       2       3       4       5       6       7       8       9      10
 ...................................................................................
   1  1022.57 1021.67 6999.00 6999.00 6999.00 6999.00 6999.00 6999.00 6999.00 6999.00
   2  1022.48 1022.37 1021.80 6999.00 6999.00 1022.95 1023.04 1022.98 6999.00 6999.00
   3  6999.00 1022.15 1022.02 1021.95 1022.39 1022.84 1023.16 1022.93 6999.00 6999.00
   4  1022.48 1022.08 1021.70 1021.35 1021.27 1021.33 1021.89 1022.83 1022.38 6999.00
   5  1022.38 1021.89 1021.40 1021.01 1020.98 1021.06 1021.22 1021.48 1021.43 1021.34
   6  1022.23 1021.67 1021.15 1020.76 1020.76 1020.89 1021.12 1021.44 1021.81 1022.27
   7  1022.07 1021.32 1020.83 1020.48 1020.54 1020.74 1021.09 1021.28 1022.25 6999.00
   8  6999.00 1020.68 1020.37 1020.12 1020.24 1020.55 1020.93 1021.67 1022.87 6999.00
   9  6999.00 1019.56 1019.54 1019.55 1019.81 1020.27 1020.76 1022.03 1023.74 6999.00
  10  6999.00 1017.75 1018.14 1018.69 1019.30 1020.14 1020.90 1022.63 1024.78 1025.45
  11  6999.00 1014.40 1015.43 1017.32 1018.70 1020.23 1021.61 1024.14 1026.94 6999.00
  12  1002.61 1007.99 1011.60 1015.10 1018.03 1020.79 1023.15 1027.40 1031.00 6999.00
  13   995.72 1000.67 1006.99 1012.85 1017.71 1022.23 1026.52 1031.61 1034.67 6999.00
  14  6999.00 1006.93 1009.74 1014.19 1018.62 1022.92 1027.83 1033.43 1037.57 6999.00
  15  6999.00 6999.00 1013.51 1016.09 1019.35 1022.23 6999.00 6999.00 6999.00 6999.00

 HEAD WILL BE SAVED ON UNIT   62 AT END OF TIME STEP   15, STRESS PERIOD    7
1
  VOLUMETRIC BUDGET FOR ENTIRE MODEL AT END OF TIME STEP   15, STRESS PERIOD   7
  ------------------------------------------------------------------------------

     CUMULATIVE VOLUMES      L**3       RATES FOR THIS TIME STEP      L**3/T
     ------------------                 ------------------------

           IN:                                      IN:
           ---                                      ---
             STORAGE =     6493778.5000               STORAGE =           1.6964
       CONSTANT HEAD =           0.0000         CONSTANT HEAD =           0.0000
               WELLS =           0.0000                 WELLS =           0.0000
     HEAD DEP BOUNDS =     4912042.0000       HEAD DEP BOUNDS =           0.2824
      STREAM LEAKAGE =   180978448.0000        STREAM LEAKAGE =          10.8644
        UZF RECHARGE =   401895104.0000          UZF RECHARGE =          25.7079
               GW ET =           0.0000                 GW ET =           0.0000
     SURFACE LEAKAGE =           0.0000       SURFACE LEAKAGE =           0.0000

            TOTAL IN =   594279360.0000              TOTAL IN =          38.5510

          OUT:                                     OUT:
          ----                                     ----
             STORAGE =   435242016.0000               STORAGE =          26.5799
       CONSTANT HEAD =           0.0000         CONSTANT HEAD =           0.0000
               WELLS =           0.0000                 WELLS =           0.0000
     HEAD DEP BOUNDS =     4985341.0000       HEAD DEP BOUNDS =           0.2932
      STREAM LEAKAGE =   145427568.0000        STREAM LEAKAGE =           8.6931
        UZF RECHARGE =           0.0000          UZF RECHARGE =           0.0000
               GW ET =     8590512.0000                 GW ET =           2.9827
     SURFACE LEAKAGE =           0.0000       SURFACE LEAKAGE =           0.0000

           TOTAL OUT =   594245440.0000             TOTAL OUT =          38.5490

            IN - OUT =       33920.0000              IN - OUT =       2.0027E-03

 PERCENT DISCREPANCY =           0.01     PERCENT DISCREPANCY =           0.01






         TIME SUMMARY AT END OF TIME STEP   15 IN STRESS PERIOD    7
                    SECONDS     MINUTES      HOURS       DAYS        YEARS
                    -----------------------------------------------------------
   TIME STEP LENGTH  87600.      1460.0      24.333      1.0139     2.77588E-03
 STRESS PERIOD TIME 1.31400E+06  21900.      365.00      15.208     4.16381E-02
         TOTAL TIME 1.70820E+07 2.84700E+05  4745.0      197.71     0.54130    
1
 
 SOLVING FOR HEAD 
                                                   Max.-Head-Change                         Max.-Flux-Residual
  Residual-Control   Outer-Iter.   Inner-Iter.     Column Row Layer    Maximum-Head-Change  Column Row Layer    Maximum-Flux-Residual          L2-NORM 
          0                 1           2             7    6     1      -0.2891921270E+00       7    6    1        -0.1577994422E+02      0.1590713736E+02
          0                 2           2             7    6     1       0.3163142365E+00       7    6    1         0.1743466562E+02      0.1744105244E+02
          0                 3           2             7    6     1      -0.1811228949E-01       7    6    1        -0.1008014776E+01      0.1027312863E+01
          0                 4           2             7    6     1      -0.3195532993E-02       7    6    1        -0.1776787009E+00      0.1933810966E+00
          0                 5           2             7    6     1      -0.5645176160E-03       7    6    1        -0.3136208750E-01      0.4604949457E-01
          0                 6           2             8    3     1       0.1175105490E-03       7    6    1        -0.5542620077E-02      0.1606718092E-01
          0                 7           1             8    3     1       0.5273328920E-04       8    3    1         0.1371241779E-02      0.6822228516E-02
          0                 8           1             8    3     1       0.2366400138E-04       8    3    1         0.6153485660E-03      0.3027911378E-02
          0                 9           1             8    3     1       0.1061907787E-04       8    3    1         0.2761364007E-03      0.1353977698E-02
          0                10           1             8    3     1       0.4765195633E-05       8    3    1         0.1239142990E-03      0.6062019421E-03

    ------------------------------------------------
       NWT REQUIRED           10 OUTER ITERATIONS 
       AND A TOTAL OF         16 INNER ITERATIONS.
    ------------------------------------------------

 NO OUTPUT CONTROL FOR STRESS PERIOD    7   TIME STEP   16
 
 SOLVING FOR HEAD 
                                                   Max.-Head-Change                         Max.-Flux-Residual
  Residual-Control   Outer-Iter.   Inner-Iter.     Column Row Layer    Maximum-Head-Change  Column Row Layer    Maximum-Flux-Residual          L2-NORM 
          0                 1           2             7    6     1      -0.2891883433E+00       7    6    1        -0.1577975828E+02      0.1590461557E+02
          0                 2           2             7    6     1       0.3163141263E+00       7    6    1         0.1743467022E+02      0.1744102247E+02
          0                 3           2             7    6     1      -0.1811134871E-01       7    6    1        -0.1007963587E+01      0.1027215840E+01
          0                 4           2             7    6     1      -0.3195361623E-02       7    6    1        -0.1776693698E+00      0.1933256640E+00
          0                 5           2             7    6     1      -0.5644864381E-03       7    6    1        -0.3136038847E-01      0.4600915777E-01
          0                 6           2             8    3     1       0.1173024879E-03       7    6    1        -0.5542311209E-02      0.1604466795E-01
          0                 7           1             8    3     1       0.5263994125E-04       8    3    1         0.1368813972E-02      0.6811660558E-02
          0                 8           1             8    3     1       0.2362212153E-04       8    3    1         0.6142593194E-03      0.3023155400E-02
          0                 9           1             8    3     1       0.1060028965E-04       8    3    1         0.2756477261E-03      0.1351852027E-02
          0                10           1             8    3     1       0.4756767141E-05       8    3    1         0.1236950729E-03      0.6052517496E-03

    ------------------------------------------------
       NWT REQUIRED           10 OUTER ITERATIONS 
       AND A TOTAL OF         16 INNER ITERATIONS.
    ------------------------------------------------

 NO OUTPUT CONTROL FOR STRESS PERIOD    7   TIME STEP   17
 
 SOLVING FOR HEAD 
                                                   Max.-Head-Change                         Max.-Flux-Residual
  Residual-Control   Outer-Iter.   Inner-Iter.     Column Row Layer    Maximum-Head-Change  Column Row Layer    Maximum-Flux-Residual          L2-NORM 
          0                 1           2             7    6     1      -0.2891870437E+00       7    6    1        -0.1577970796E+02      0.1590253986E+02
          0                 2           2             7    6     1       0.3163165702E+00       7    6    1         0.1743481559E+02      0.1744113635E+02
          0                 3           2             7    6     1      -0.1811062005E-01       7    6    1        -0.1007924202E+01      0.1027131898E+01
          0                 4           2             7    6     1      -0.3195227693E-02       7    6    1        -0.1776621199E+00      0.1932731673E+00
          0                 5           2             7    6     1      -0.5644618783E-03       7    6    1        -0.3135905698E-01      0.4596984763E-01
          0                 6           2             8    3     1       0.1170938893E-03       7    6    1        -0.5542067275E-02      0.1602255941E-01
          0                 7           1             8    3     1       0.5254636045E-04       8    3    1         0.1366379946E-02      0.6801301632E-02
          0                 8           1             8    3     1       0.2358014177E-04       8    3    1         0.6131673903E-03      0.3018492775E-02
          0                 9           1             8    3     1       0.1058145841E-04       8    3    1         0.2751578899E-03      0.1349767274E-02
          0                10           1             8    3     1       0.4748319891E-05       8    3    1         0.1234753380E-03      0.6043208754E-03

    ------------------------------------------------
       NWT REQUIRED           10 OUTER ITERATIONS 
       AND A TOTAL OF         16 INNER ITERATIONS.
    ------------------------------------------------

 NO OUTPUT CONTROL FOR STRESS PERIOD    7   TIME STEP   18
 
 SOLVING FOR HEAD 
                                                   Max.-Head-Change                         Max.-Flux-Residual
  Residual-Control   Outer-Iter.   Inner-Iter.     Column Row Layer    Maximum-Head-Change  Column Row Layer    Maximum-Flux-Residual          L2-NORM 
          0                 1           2             7    6     1      -0.2891809687E+00       7    6    1        -0.1577939696E+02      0.1590033742E+02
          0                 2           2             7    6     1       0.3163137765E+00       7    6    1         0.1743467231E+02      0.1744096308E+02
          0                 3           2             7    6     1      -0.1810954634E-01       7    6    1        -0.1007865614E+01      0.1027029987E+01
          0                 4           2             7    6     1      -0.3195032879E-02       7    6    1        -0.1776514850E+00      0.1932188163E+00
          0                 5           2             7    6     1      -0.5644265597E-03       7    6    1        -0.3135712790E-01      0.4593147366E-01
          0                 6           2             8    3     1       0.1168878869E-03       7    6    1        -0.5541717754E-02      0.1600135578E-01
          0                 7           1             8    3     1       0.5245394292E-04       8    3    1         0.1363976207E-02      0.6791438993E-02
          0                 8           1             8    3     1       0.2353868236E-04       8    3    1         0.6120890225E-03      0.3014085949E-02
          0                 9           1             8    3     1       0.1056286003E-04       8    3    1         0.2746741317E-03      0.1347811569E-02
          0                10           1             8    3     1       0.4739977312E-05       8    3    1         0.1232583347E-03      0.6034537335E-03

    ------------------------------------------------
       NWT REQUIRED           10 OUTER ITERATIONS 
       AND A TOTAL OF         16 INNER ITERATIONS.
    ------------------------------------------------

 NO OUTPUT CONTROL FOR STRESS PERIOD    7   TIME STEP   19
 
 SOLVING FOR HEAD 
                                                   Max.-Head-Change                         Max.-Flux-Residual
  Residual-Control   Outer-Iter.   Inner-Iter.     Column Row Layer    Maximum-Head-Change  Column Row Layer    Maximum-Flux-Residual          L2-NORM 
          0                 1           2             7    6     1      -0.2891774798E+00       7    6    1        -0.1577922703E+02      0.1589855698E+02
          0                 2           2             7    6     1       0.3163137715E+00       7    6    1         0.1743468277E+02      0.1744094645E+02
          0                 3           2             7    6     1      -0.1810867130E-01       7    6    1        -0.1007818080E+01      0.1026940540E+01
          0                 4           2             7    6     1      -0.3194873128E-02       7    6    1        -0.1776427993E+00      0.1931669658E+00
          0                 5           2             7    6     1      -0.5643974377E-03       7    6    1        -0.3135554300E-01      0.4589355138E-01
          0                 6           2             8    3     1       0.1166798723E-03       7    6    1        -0.5541429067E-02      0.1598012003E-01
          0                 7           1             8    3     1       0.5236064000E-04       8    3    1         0.1361549061E-02      0.6781477013E-02
          0                 8           1             8    3     1       0.2349683378E-04       8    3    1         0.6110003549E-03      0.3009601264E-02
          0                 9           1             8    3     1       0.1054409045E-04       8    3    1         0.2741858359E-03      0.1345806203E-02
          0                10           1             8    3     1       0.4731559324E-05       8    3    1         0.1230393282E-03      0.6025585675E-03

    ------------------------------------------------
       NWT REQUIRED           10 OUTER ITERATIONS 
       AND A TOTAL OF         16 INNER ITERATIONS.
    ------------------------------------------------

 NO OUTPUT CONTROL FOR STRESS PERIOD    7   TIME STEP   20
 
 SOLVING FOR HEAD 
                                                   Max.-Head-Change                         Max.-Flux-Residual
  Residual-Control   Outer-Iter.   Inner-Iter.     Column Row Layer    Maximum-Head-Change  Column Row Layer    Maximum-Flux-Residual          L2-NORM 
          0                 1           2             7    6     1      -0.2891743015E+00       7    6    1        -0.1577907402E+02      0.1589695236E+02
          0                 2           2             7    6     1       0.3163140770E+00       7    6    1         0.1743471035E+02      0.1744094831E+02
          0                 3           2             7    6     1      -0.1810782667E-01       7    6    1        -0.1007772238E+01      0.1026853472E+01
          0                 4           2             7    6     1      -0.3194718747E-02       7    6    1        -0.1776344120E+00      0.1931161646E+00
          0                 5           2             7    6     1      -0.5643692653E-03       7    6    1        -0.3135401081E-01      0.4585633307E-01
          0                 6           2             8    3     1       0.1164744551E-03       7    6    1        -0.5541149679E-02      0.1595926230E-01
          0                 7           1             8    3     1       0.5226849659E-04       8    3    1         0.1359152205E-02      0.6771689261E-02
          0                 8           1             8    3     1       0.2345550243E-04       8    3    1         0.6099252048E-03      0.3005194280E-02
          0                 9           1             8    3     1       0.1052555172E-04       8    3    1         0.2737035788E-03      0.1343835732E-02
          0                10           1             8    3     1       0.4723244383E-05       8    3    1         0.1228230200E-03      0.6016783972E-03

    ------------------------------------------------
       NWT REQUIRED           10 OUTER ITERATIONS 
       AND A TOTAL OF         16 INNER ITERATIONS.
    ------------------------------------------------

 NO OUTPUT CONTROL FOR STRESS PERIOD    7   TIME STEP   21
 
 SOLVING FOR HEAD 
                                                   Max.-Head-Change                         Max.-Flux-Residual
  Residual-Control   Outer-Iter.   Inner-Iter.     Column Row Layer    Maximum-Head-Change  Column Row Layer    Maximum-Flux-Residual          L2-NORM 
          0                 1           2             7    6     1      -0.2891700898E+00       7    6    1        -0.1577886464E+02      0.1590541107E+02
          0                 2           2             7    6     1       0.3163133466E+00       7    6    1         0.1743468084E+02      0.1744098096E+02
          0                 3           2             7    6     1      -0.1810689284E-01       7    6    1        -0.1007721437E+01      0.1026771836E+01
          0                 4           2             7    6     1      -0.3194548605E-02       7    6    1        -0.1776251491E+00      0.1930633319E+00
          0                 5           2             7    6     1      -0.5643383049E-03       7    6    1        -0.3135232385E-01      0.4581764441E-01
          0                 6           2             8    3     1       0.1162685289E-03       7    6    1        -0.5540842921E-02      0.1593759535E-01
          0                 7           1             8    3     1       0.5217613046E-04       8    3    1         0.1356749436E-02      0.6761523314E-02
          0                 8           1             8    3     1       0.2341407416E-04       8    3    1         0.6088474758E-03      0.3000617336E-02
          0                 9           1             8    3     1       0.1050697059E-04       8    3    1         0.2732201927E-03      0.1341789724E-02
          0                10           1             8    3     1       0.4714910683E-05       8    3    1         0.1226062187E-03      0.6007633362E-03

    ------------------------------------------------
       NWT REQUIRED           10 OUTER ITERATIONS 
       AND A TOTAL OF         16 INNER ITERATIONS.
    ------------------------------------------------

 NO OUTPUT CONTROL FOR STRESS PERIOD    7   TIME STEP   22
 
 SOLVING FOR HEAD 
                                                   Max.-Head-Change                         Max.-Flux-Residual
  Residual-Control   Outer-Iter.   Inner-Iter.     Column Row Layer    Maximum-Head-Change  Column Row Layer    Maximum-Flux-Residual          L2-NORM 
          0                 1           2             7    6     1      -0.2891665780E+00       7    6    1        -0.1577869321E+02      0.1591579200E+02
          0                 2           2             7    6     1       0.3163132236E+00       7    6    1         0.1743468487E+02      0.1744106487E+02
          0                 3           2             7    6     1      -0.1810603928E-01       7    6    1        -0.1007675093E+01      0.1026696513E+01
          0                 4           2             7    6     1      -0.3194392670E-02       7    6    1        -0.1776166746E+00      0.1930107832E+00
          0                 5           2             7    6     1      -0.5643098611E-03       7    6    1        -0.3135077648E-01      0.4577858947E-01
          0                 6           2             8    3     1       0.1160637822E-03       7    6    1        -0.5540560890E-02      0.1591565877E-01
          0                 7           1             8    3     1       0.5208430269E-04       8    3    1         0.1354360468E-02      0.6751225023E-02
          0                 8           1             8    3     1       0.2337289126E-04       8    3    1         0.6077760434E-03      0.2995979985E-02
          0                 9           1             8    3     1       0.1048850152E-04       8    3    1         0.2727396777E-03      0.1339715211E-02
          0                10           1             8    3     1       0.4706627880E-05       8    3    1         0.1223907233E-03      0.5998380733E-03

    ------------------------------------------------
       NWT REQUIRED           10 OUTER ITERATIONS 
       AND A TOTAL OF         16 INNER ITERATIONS.
    ------------------------------------------------

 NO OUTPUT CONTROL FOR STRESS PERIOD    7   TIME STEP   23
 
 SOLVING FOR HEAD 
                                                   Max.-Head-Change                         Max.-Flux-Residual
  Residual-Control   Outer-Iter.   Inner-Iter.     Column Row Layer    Maximum-Head-Change  Column Row Layer    Maximum-Flux-Residual          L2-NORM 
          0                 1           2             7    6     1      -0.2891632202E+00       7    6    1        -0.1577853034E+02      0.1591103293E+02
          0                 2           2             7    6     1       0.3163133616E+00       7    6    1         0.1743470327E+02      0.1744102987E+02
          0                 3           2             7    6     1      -0.1810518372E-01       7    6    1        -0.1007628645E+01      0.1026604459E+01
          0                 4           2             7    6     1      -0.3194236350E-02       7    6    1        -0.1776081799E+00      0.1929587479E+00
          0                 5           2             7    6     1      -0.5642813445E-03       7    6    1        -0.3134922524E-01      0.4574040007E-01
          0                 6           2             8    3     1       0.1158584721E-03       7    6    1        -0.5540278147E-02      0.1589421309E-01
          0                 7           1             8    3     1       0.5199222018E-04       8    3    1         0.1351964917E-02      0.6741154700E-02
          0                 8           1             8    3     1       0.2333159292E-04       8    3    1         0.6067016328E-03      0.2991444606E-02
          0                 9           1             8    3     1       0.1046998042E-04       8    3    1         0.2722578203E-03      0.1337687430E-02
          0                10           1             8    3     1       0.4698322068E-05       8    3    1         0.1221746227E-03      0.5989307251E-03

    ------------------------------------------------
       NWT REQUIRED           10 OUTER ITERATIONS 
       AND A TOTAL OF         16 INNER ITERATIONS.
    ------------------------------------------------

 NO OUTPUT CONTROL FOR STRESS PERIOD    7   TIME STEP   24
 
 SOLVING FOR HEAD 
                                                   Max.-Head-Change                         Max.-Flux-Residual
  Residual-Control   Outer-Iter.   Inner-Iter.     Column Row Layer    Maximum-Head-Change  Column Row Layer    Maximum-Flux-Residual          L2-NORM 
          0                 1           2             7    6     1      -0.2891594042E+00       7    6    1        -0.1577834234E+02      0.1590694852E+02
          0                 2           2             7    6     1       0.3163128491E+00       7    6    1         0.1743468585E+02      0.1744096541E+02
          0                 3           2             7    6     1      -0.1810432220E-01       7    6    1        -0.1007581859E+01      0.1026513787E+01
          0                 4           2             7    6     1      -0.3194079005E-02       7    6    1        -0.1775996272E+00      0.1929077246E+00
          0                 5           2             7    6     1      -0.5642526508E-03       7    6    1        -0.3134766402E-01      0.4570306566E-01
          0                 6           2             8    3     1       0.1156543528E-03       7    6    1        -0.5539993660E-02      0.1587324980E-01
          0                 7           1             8    3     1       0.5190068004E-04       8    3    1         0.1349583307E-02      0.6731309272E-02
          0                 8           1             8    3     1       0.2329054144E-04       8    3    1         0.6056335685E-03      0.2987009849E-02
          0                 9           1             8    3     1       0.1045157150E-04       8    3    1         0.2717788512E-03      0.1335703257E-02
          0                10           1             8    3     1       0.4690067028E-05       8    3    1         0.1219598371E-03      0.5980445133E-03

    ------------------------------------------------
       NWT REQUIRED           10 OUTER ITERATIONS 
       AND A TOTAL OF         16 INNER ITERATIONS.
    ------------------------------------------------

 NO OUTPUT CONTROL FOR STRESS PERIOD    7   TIME STEP   25
 
 SOLVING FOR HEAD 
                                                   Max.-Head-Change                         Max.-Flux-Residual
  Residual-Control   Outer-Iter.   Inner-Iter.     Column Row Layer    Maximum-Head-Change  Column Row Layer    Maximum-Flux-Residual          L2-NORM 
          0                 1           2             7    6     1      -0.2891554977E+00       7    6    1        -0.1577814933E+02      0.1590345431E+02
          0                 2           2             7    6     1       0.3163123296E+00       7    6    1         0.1743466807E+02      0.1744090626E+02
          0                 3           2             7    6     1      -0.1810344091E-01       7    6    1        -0.1007533976E+01      0.1026423815E+01
          0                 4           2             7    6     1      -0.3193918163E-02       7    6    1        -0.1775908805E+00      0.1928575903E+00
          0                 5           2             7    6     1      -0.5642233382E-03       7    6    1        -0.3134606846E-01      0.4566655696E-01
          0                 6           2             8    3     1       0.1154513641E-03       7    6    1        -0.5539703088E-02      0.1585275831E-01
          0                 7           1             8    3     1       0.5180964850E-04       8    3    1         0.1347214886E-02      0.6721684450E-02
          0                 8           1             8    3     1       0.2324971932E-04       8    3    1         0.6045714459E-03      0.2982673948E-02
          0                 9           1             8    3     1       0.1043326562E-04       8    3    1         0.2713025516E-03      0.1333763732E-02
          0                10           1             8    3     1       0.4681858508E-05       8    3    1         0.1217462509E-03      0.5971775784E-03

    ------------------------------------------------
       NWT REQUIRED           10 OUTER ITERATIONS 
       AND A TOTAL OF         16 INNER ITERATIONS.
    ------------------------------------------------

 NO OUTPUT CONTROL FOR STRESS PERIOD    7   TIME STEP   26
 
 SOLVING FOR HEAD 
                                                   Max.-Head-Change                         Max.-Flux-Residual
  Residual-Control   Outer-Iter.   Inner-Iter.     Column Row Layer    Maximum-Head-Change  Column Row Layer    Maximum-Flux-Residual          L2-NORM 
          0                 1           2             7    6     1      -0.2891513462E+00       7    6    1        -0.1577794293E+02      0.1590044554E+02
          0                 2           2             7    6     1       0.3163115103E+00       7    6    1         0.1743463378E+02      0.1744083523E+02
          0                 3           2             7    6     1      -0.1810254920E-01       7    6    1        -0.1007485512E+01      0.1026334669E+01
          0                 4           2             7    6     1      -0.3193755484E-02       7    6    1        -0.1775820315E+00      0.1928082632E+00
          0                 5           2             7    6     1      -0.5641937005E-03       7    6    1        -0.3134445487E-01      0.4563076265E-01
          0                 6           2             8    3     1       0.1152494856E-03       7    6    1        -0.5539409348E-02      0.1583267488E-01
          0                 7           1             8    3     1       0.5171911505E-04       8    3    1         0.1344859426E-02      0.6712249385E-02
          0                 8           1             8    3     1       0.2320912092E-04       8    3    1         0.6035151417E-03      0.2978423180E-02
          0                 9           1             8    3     1       0.1041505991E-04       8    3    1         0.2708288635E-03      0.1331862439E-02
          0                10           1             8    3     1       0.4673695134E-05       8    3    1         0.1215338401E-03      0.5963291829E-03

    ------------------------------------------------
       NWT REQUIRED           10 OUTER ITERATIONS 
       AND A TOTAL OF         16 INNER ITERATIONS.
    ------------------------------------------------

 NO OUTPUT CONTROL FOR STRESS PERIOD    7   TIME STEP   27
 
 SOLVING FOR HEAD 
                                                   Max.-Head-Change                         Max.-Flux-Residual
  Residual-Control   Outer-Iter.   Inner-Iter.     Column Row Layer    Maximum-Head-Change  Column Row Layer    Maximum-Flux-Residual          L2-NORM 
          0                 1           2             7    6     1      -0.2891477876E+00       7    6    1        -0.1577776884E+02      0.1589787507E+02
          0                 2           2             7    6     1       0.3163113062E+00       7    6    1         0.1743463342E+02      0.1744080192E+02
          0                 3           2             7    6     1      -0.1810170871E-01       7    6    1        -0.1007439897E+01      0.1026249558E+01
          0                 4           2             7    6     1      -0.3193601850E-02       7    6    1        -0.1775736852E+00      0.1927601599E+00
          0                 5           2             7    6     1      -0.5641656625E-03       7    6    1        -0.3134293008E-01      0.4559563218E-01
          0                 6           2             8    3     1       0.1150472406E-03       7    6    1        -0.5539131286E-02      0.1581292949E-01
          0                 7           1             8    3     1       0.5162842841E-04       8    3    1         0.1342499746E-02      0.6702972131E-02
          0                 8           1             8    3     1       0.2316845812E-04       8    3    1         0.6024570674E-03      0.2974243442E-02
          0                 9           1             8    3     1       0.1039682794E-04       8    3    1         0.2703544404E-03      0.1329992446E-02
          0                10           1             8    3     1       0.4665520380E-05       8    3    1         0.1213211201E-03      0.5954973001E-03

    ------------------------------------------------
       NWT REQUIRED           10 OUTER ITERATIONS 
       AND A TOTAL OF         16 INNER ITERATIONS.
    ------------------------------------------------

 NO OUTPUT CONTROL FOR STRESS PERIOD    7   TIME STEP   28
 
 SOLVING FOR HEAD 
                                                   Max.-Head-Change                         Max.-Flux-Residual
  Residual-Control   Outer-Iter.   Inner-Iter.     Column Row Layer    Maximum-Head-Change  Column Row Layer    Maximum-Flux-Residual          L2-NORM 
          0                 1           2             7    6     1      -0.2891439818E+00       7    6    1        -0.1577758121E+02      0.1589564030E+02
          0                 2           2             7    6     1       0.3163108020E+00       7    6    1         0.1743461654E+02      0.1744075564E+02
          0                 3           2             7    6     1      -0.1810085722E-01       7    6    1        -0.1007393669E+01      0.1026165226E+01
          0                 4           2             7    6     1      -0.3193446277E-02       7    6    1        -0.1775652310E+00      0.1927128909E+00
          0                 5           2             7    6     1      -0.5641372814E-03       7    6    1        -0.3134138626E-01      0.4556123144E-01
          0                 6           2             8    3     1       0.1148460968E-03       7    6    1        -0.5538849892E-02      0.1579359949E-01
          0                 7           1             8    3     1       0.5153823274E-04       8    3    1         0.1340152893E-02      0.6693886598E-02
          0                 8           1             8    3     1       0.2312801391E-04       8    3    1         0.6014047026E-03      0.2970148111E-02
          0                 9           1             8    3     1       0.1037869302E-04       8    3    1         0.2698825581E-03      0.1328159104E-02
          0                10           1             8    3     1       0.4657389019E-05       8    3    1         0.1211095351E-03      0.5946727812E-03

    ------------------------------------------------
       NWT REQUIRED           10 OUTER ITERATIONS 
       AND A TOTAL OF         16 INNER ITERATIONS.
    ------------------------------------------------

 NO OUTPUT CONTROL FOR STRESS PERIOD    7   TIME STEP   29
 
 SOLVING FOR HEAD 
                                                   Max.-Head-Change                         Max.-Flux-Residual
  Residual-Control   Outer-Iter.   Inner-Iter.     Column Row Layer    Maximum-Head-Change  Column Row Layer    Maximum-Flux-Residual          L2-NORM 
          0                 1           2             7    6     1      -0.2891394544E+00       7    6    1        -0.1577735426E+02      0.1589365119E+02
          0                 2           2             7    6     1       0.3163094835E+00       7    6    1         0.1743455477E+02      0.1744066685E+02
          0                 3           2             7    6     1      -0.1809995937E-01       7    6    1        -0.1007344864E+01      0.1026079066E+01
          0                 4           2             7    6     1      -0.3193282519E-02       7    6    1        -0.1775563219E+00      0.1926657980E+00
          0                 5           2             7    6     1      -0.5641074539E-03       7    6    1        -0.3133976207E-01      0.4552727587E-01
          0                 6           2             8    3     1       0.1146445823E-03       7    6    1        -0.5538554264E-02      0.1577454679E-01
          0                 7           1             8    3     1       0.5144787838E-04       8    3    1         0.1337801757E-02      0.6684933218E-02
          0                 8           1             8    3     1       0.2308750292E-04       8    3    1         0.6003505268E-03      0.2966113117E-02
          0                 9           1             8    3     1       0.1036053020E-04       8    3    1         0.2694099105E-03      0.1326353178E-02
          0                10           1             8    3     1       0.4649245404E-05       8    3    1         0.1208976212E-03      0.5938651541E-03

    ------------------------------------------------
       NWT REQUIRED           10 OUTER ITERATIONS 
       AND A TOTAL OF         16 INNER ITERATIONS.
    ------------------------------------------------

 NO OUTPUT CONTROL FOR STRESS PERIOD    7   TIME STEP   30



 STREAM LISTING     PERIOD      7   STEP       30

 LAYER ROW COL. STREAM  RCH.  FLOW INTO     FLOW TO   FLOW OUT OF   OVRLND.     DIRECT     STREAM       STREAM     STREAM     STREAM   STREAMBED  STREAMBED
                SEG.NO.  NO.  STRM. RCH.    AQUIFER    STRM. RCH.    RUNOFF     PRECIP       ET          HEAD       DEPTH      WIDTH   CONDCTNC.   GRADIENT

   1    1    1     1     1    6.3000E+01  3.8236E-01   6.2618E+01  0.000E+00  0.000E+00  0.000E+00  1.09461E+03  1.562E+00  1.863E+01  8.382E-02  1.521E+00
   1    2    2     1     2    6.2618E+01  5.9218E-01   6.2025E+01  0.000E+00  0.000E+00  0.000E+00  1.08961E+03  1.556E+00  1.857E+01  1.300E-01  1.519E+00
   1    3    3     1     3    6.2025E+01  5.0506E-01   6.1520E+01  0.000E+00  0.000E+00  0.000E+00  1.08397E+03  1.549E+00  1.850E+01  1.110E-01  1.516E+00
   1    3    4     1     4    6.1520E+01  4.6510E-01   6.1055E+01  0.000E+00  0.000E+00  0.000E+00  1.07895E+03  1.543E+00  1.845E+01  1.024E-01  1.514E+00
   1    4    5     2     1    5.9055E+01  0.0000E+00   5.9055E+01  0.000E+00  0.000E+00  0.000E+00  1.07396E+03  2.023E+00  1.200E+01  0.000E+00  1.674E+00
   1    5    6     2     2    5.9055E+01  0.0000E+00   5.9055E+01  0.000E+00  0.000E+00  0.000E+00  1.06853E+03  2.023E+00  1.200E+01  0.000E+00  1.674E+00
   1    6    6     2     3    5.9055E+01  0.0000E+00   5.9055E+01  0.000E+00  0.000E+00  0.000E+00  1.06382E+03  2.023E+00  1.200E+01  0.000E+00  1.674E+00
   1    7    6     2     4    5.9055E+01  0.0000E+00   5.9055E+01  0.000E+00  0.000E+00  0.000E+00  1.05910E+03  2.023E+00  1.200E+01  0.000E+00  1.674E+00
   1    8    6     2     5    5.9055E+01  0.0000E+00   5.9055E+01  0.000E+00  0.000E+00  0.000E+00  1.05438E+03  2.023E+00  1.200E+01  0.000E+00  1.674E+00
   1    3    5     3     1    2.0000E+00  2.8252E-01   1.7175E+00  0.000E+00  0.000E+00  0.000E+00  1.07555E+03  1.909E+00  9.636E+00  7.227E-02  1.955E+00
   1    3    6     3     2    1.7175E+00  2.4905E-01   1.4684E+00  0.000E+00  0.000E+00  0.000E+00  1.07264E+03  1.727E+00  8.909E+00  6.682E-02  1.864E+00
   1    3    7     3     3    1.4684E+00  1.9718E-01   1.2712E+00  0.000E+00  0.000E+00  0.000E+00  1.06987E+03  1.555E+00  8.218E+00  5.547E-02  1.777E+00
   1    4    8     3     4    1.2712E+00  2.2567E-01   1.0456E+00  0.000E+00  0.000E+00  0.000E+00  1.06682E+03  1.364E+00  7.455E+00  6.709E-02  1.682E+00
   1    5    8     3     5    1.0456E+00  1.5790E-01   8.8768E-01  0.000E+00  0.000E+00  0.000E+00  1.06362E+03  1.164E+00  6.655E+00  4.991E-02  1.582E+00
   1    6    8     3     6    8.8768E-01  5.5980E-02   8.3170E-01  0.000E+00  0.000E+00  0.000E+00  1.06158E+03  1.036E+00  6.145E+00  1.844E-02  1.518E+00
   1    5   10     4     1    1.0000E+01  0.0000E+00   1.0000E+01  0.000E+00  0.000E+00  0.000E+00  1.07837E+03  6.385E-01  1.000E+01  0.000E+00  1.213E+00
   1    5    9     4     2    1.0000E+01  0.0000E+00   1.0000E+01  0.000E+00  0.000E+00  0.000E+00  1.07155E+03  6.385E-01  1.000E+01  0.000E+00  1.213E+00
   1    6    8     4     3    1.0000E+01  0.0000E+00   1.0000E+01  0.000E+00  0.000E+00  0.000E+00  1.06382E+03  6.385E-01  1.000E+01  0.000E+00  1.213E+00
   1    6    8     5     1    1.0832E+01  2.3262E-01   1.0599E+01  0.000E+00  0.000E+00  0.000E+00  1.05869E+03  6.881E-01  1.577E+01  6.307E-02  1.229E+00
   1    7    7     5     2    1.0599E+01  2.8607E-01   1.0313E+01  0.000E+00  0.000E+00  0.000E+00  1.05418E+03  6.822E-01  1.554E+01  7.769E-02  1.227E+00
   1    8    7     5     3    1.0313E+01  1.9716E-01   1.0116E+01  0.000E+00  0.000E+00  0.000E+00  1.04993E+03  6.766E-01  1.532E+01  5.363E-02  1.226E+00
   1    8    6     5     4    1.0116E+01  1.3929E-01   9.9766E+00  0.000E+00  0.000E+00  0.000E+00  1.04692E+03  6.727E-01  1.517E+01  3.792E-02  1.224E+00
   1    9    6     6     1    6.9032E+01  0.0000E+00   6.9032E+01  0.000E+00  0.000E+00  0.000E+00  1.04497E+03  2.246E+00  1.200E+01  0.000E+00  1.749E+00
   1   10    7     6     2    6.9032E+01  0.0000E+00   6.9032E+01  0.000E+00  0.000E+00  0.000E+00  1.04043E+03  2.246E+00  1.200E+01  0.000E+00  1.749E+00
   1   11    7     6     3    6.9032E+01  0.0000E+00   6.9032E+01  0.000E+00  0.000E+00  0.000E+00  1.03588E+03  2.246E+00  1.200E+01  0.000E+00  1.749E+00
   1   12    7     6     4    6.9032E+01  0.0000E+00   6.9032E+01  0.000E+00  0.000E+00  0.000E+00  1.03134E+03  2.246E+00  1.200E+01  0.000E+00  1.749E+00
   1   13    7     6     5    6.9032E+01  0.0000E+00   6.9032E+01  0.000E+00  0.000E+00  0.000E+00  1.02816E+03  2.246E+00  1.200E+01  0.000E+00  5.412E-01
   1   14    9     7     1    1.5000E+02  1.2846E+00   1.4872E+02  0.000E+00  0.000E+00  0.000E+00  1.03987E+03  2.288E+00  5.530E+01  5.593E-01  7.656E-01
   1   13    8     7     2    1.4872E+02  1.9419E+00   1.4677E+02  0.000E+00  0.000E+00  0.000E+00  1.03478E+03  2.279E+00  5.526E+01  6.148E-01  1.053E+00
   1   13    7     7     3    1.4677E+02  1.7630E+00   1.4501E+02  0.000E+00  0.000E+00  0.000E+00  1.02969E+03  2.269E+00  5.521E+01  5.584E-01  1.052E+00
   1   13    6     8     1    2.1404E+02  1.3629E+00   2.1268E+02  0.000E+00  0.000E+00  0.000E+00  1.02509E+03  3.215E+00  4.661E+01  4.750E-01  9.564E-01
   1   13    5     8     2    2.1268E+02  5.7639E-01   2.1210E+02  0.000E+00  0.000E+00  0.000E+00  1.01883E+03  3.209E+00  4.653E+01  4.742E-01  4.052E-01
   1   13    4     8     3    2.1210E+02 -1.0835E+00   2.1319E+02  0.000E+00  0.000E+00  0.000E+00  1.01259E+03  3.211E+00  4.656E+01  4.744E+00 -7.613E-02
   1   13    3     8     4    2.1319E+02 -2.8584E+00   2.1604E+02  0.000E+00  0.000E+00  0.000E+00  1.00635E+03  3.222E+00  4.672E+01  4.761E+00 -2.001E-01
   1   13    2     8     5    2.1604E+02 -2.1863E+00   2.1823E+02  0.000E+00  0.000E+00  0.000E+00  1.00011E+03  3.236E+00  4.692E+01  4.781E+00 -1.524E-01
   1   13    1     8     6    2.1823E+02 -1.5137E+00   2.1974E+02  0.000E+00  0.000E+00  0.000E+00  9.95121E+02  3.246E+00  4.707E+01  2.878E+00 -1.753E-01
   1    6    8     9     1    0.0000E+00  0.0000E+00   0.0000E+00  0.000E+00  0.000E+00  0.000E+00  1.07850E+03  0.000E+00  4.000E+00  0.000E+00  1.000E+00





UNSATURATED ZONE PACKAGE VOLUMETRIC BUDGET FOR  TIME STEP    30 STRESS PERIOD    7
  ------------------------------------------------------------------------------



     CUMULATIVE VOLUMES      L**3       RATES FOR THIS TIME STEP      L**3/T
     ------------------                 ------------------------

           IN:                                      IN:
           ---                                      ---
        INFILTRATION =    15590733.1784          INFILTRATION =           0.8475

          OUT:                                     OUT:
          ----                                     ----
              UZF ET =   335510812.2397                UZF ET =          83.2699
        UZF RECHARGE =   435467916.7574          UZF RECHARGE =          25.4233

            IN - OUT =  -755387995.8188              IN - OUT =        -107.8457

          STORAGE:                                 STORAGE:
          --------                                 --------
      STORAGE CHANGE =  -755380844.8251        STORAGE CHANGE =        -107.8456

 PERCENT DISCREPANCY IS DIFFERENCE BETWEEN IN-OUT MINUS CHANGE IN STORAGE
 DIVIDED BY THE AVERAGE OF IN AND OUT TIMES 100

 PERCENT DISCREPANCY =          -0.00     PERCENT DISCREPANCY =          -0.00






1
  VOLUMETRIC BUDGET FOR ENTIRE MODEL AT END OF TIME STEP   30, STRESS PERIOD   7
  ------------------------------------------------------------------------------

     CUMULATIVE VOLUMES      L**3       RATES FOR THIS TIME STEP      L**3/T
     ------------------                 ------------------------

           IN:                                      IN:
           ---                                      ---
             STORAGE =     8288357.0000               STORAGE =           1.0492
       CONSTANT HEAD =           0.0000         CONSTANT HEAD =           0.0000
               WELLS =           0.0000                 WELLS =           0.0000
     HEAD DEP BOUNDS =     5283042.5000       HEAD DEP BOUNDS =           0.2823
      STREAM LEAKAGE =   195280096.0000        STREAM LEAKAGE =          10.8969
        UZF RECHARGE =   435467904.0000          UZF RECHARGE =          25.4233
               GW ET =           0.0000                 GW ET =           0.0000
     SURFACE LEAKAGE =           0.0000       SURFACE LEAKAGE =           0.0000

            TOTAL IN =   644319360.0000              TOTAL IN =          37.6517

          OUT:                                     OUT:
          ----                                     ----
             STORAGE =   469727904.0000               STORAGE =          25.9873
       CONSTANT HEAD =           0.0000         CONSTANT HEAD =           0.0000
               WELLS =           0.0000                 WELLS =           0.0000
     HEAD DEP BOUNDS =     5368620.0000       HEAD DEP BOUNDS =           0.2906
      STREAM LEAKAGE =   156113184.0000        STREAM LEAKAGE =           7.6418
        UZF RECHARGE =           0.0000          UZF RECHARGE =           0.0000
               GW ET =    13073154.0000                 GW ET =           3.7301
     SURFACE LEAKAGE =           0.0000       SURFACE LEAKAGE =           0.0000

           TOTAL OUT =   644282880.0000             TOTAL OUT =          37.6498

            IN - OUT =       36480.0000              IN - OUT =       1.9341E-03

 PERCENT DISCREPANCY =           0.01     PERCENT DISCREPANCY =           0.01






         TIME SUMMARY AT END OF TIME STEP   30 IN STRESS PERIOD    7
                    SECONDS     MINUTES      HOURS       DAYS        YEARS
                    -----------------------------------------------------------
   TIME STEP LENGTH  87600.      1460.0      24.333      1.0139     2.77588E-03
 STRESS PERIOD TIME 2.62800E+06  43800.      730.00      30.417     8.32763E-02
         TOTAL TIME 1.83960E+07 3.06600E+05  5110.0      212.92     0.58293    
1
1
                            STRESS PERIOD NO.    8, LENGTH =   2628000.    
                            -----------------------------------------------

                              NUMBER OF TIME STEPS =    30

                               MULTIPLIER FOR DELT =     1.000

                            INITIAL TIME STEP SIZE =   87600.00    

 WELL NO.  LAYER   ROW   COL   STRESS RATE         
 --------------------------------------------------
      1      1      6      4       0.000    
      2      1      6      7       0.000    
      3      1      7      4       0.000    
      4      1      7      5       0.000    
      5      1      8      4       0.000    
      6      1      8      5       0.000    
      7      1      9      4       0.000    
      8      1      9      5       0.000    
      9      1     10      4       0.000    
     10      1     10      5       0.000    

     10 WELLS

 REUSING NON-PARAMETER GHB CELLS FROM LAST STRESS PERIOD

      2 GHB CELLS

 REUSING STREAM SEGMENT DATA FROM LAST STRESS PERIOD



            AREAL INFILTRATION RATE
 READING ON UNIT   19 WITH FORMAT: (10F4.0)            

            1           2           3           4           5           6           7           8           9          10
 ........................................................................................................................
   1   1.0000E-10  2.0000E-10   0.000       0.000       0.000       0.000       0.000       0.000       0.000       0.000    
   2   2.0000E-10  1.0000E-10  2.0000E-10   0.000       0.000      8.0000E-10  8.0000E-10  5.0000E-10   0.000       0.000    
   3    0.000      5.0000E-10  1.0000E-10  1.0000E-10  8.0000E-10  8.0000E-10  5.0000E-10  5.0000E-10   0.000       0.000    
   4   8.0000E-10  5.0000E-10  1.0000E-10  1.0000E-10  1.0000E-10  1.0000E-10  1.0000E-10  1.0000E-10  2.0000E-10   0.000    
   5   8.0000E-10  5.0000E-10  1.0000E-10  1.0000E-10  1.0000E-10  1.0000E-10  1.0000E-10  1.0000E-10  1.0000E-10  1.0000E-10
   6   8.0000E-10  5.0000E-10  5.0000E-10  2.0000E-10  2.0000E-10  1.0000E-10  1.0000E-10  1.0000E-10  1.0000E-10  5.0000E-10
   7   8.0000E-10  5.0000E-10  5.0000E-10  2.0000E-10  2.0000E-10  1.0000E-10  1.0000E-10  2.0000E-10  2.0000E-10   0.000    
   8    0.000      5.0000E-10  5.0000E-10  2.0000E-10  2.0000E-10  1.0000E-10  1.0000E-10  2.0000E-10  5.0000E-10   0.000    
   9    0.000      5.0000E-10  5.0000E-10  2.0000E-10  2.0000E-10  1.0000E-10  1.0000E-10  2.0000E-10  5.0000E-10   0.000    
  10    0.000      5.0000E-10  5.0000E-10  2.0000E-10  2.0000E-10  1.0000E-10  1.0000E-10  2.0000E-10  5.0000E-10  8.0000E-10
  11    0.000      1.0000E-10  1.0000E-10  1.0000E-10  1.0000E-10  1.0000E-10  1.0000E-10  2.0000E-10  5.0000E-10   0.000    
  12   1.0000E-10  1.0000E-10  1.0000E-10  1.0000E-10  1.0000E-10  1.0000E-10  1.0000E-10  1.0000E-10  2.0000E-10   0.000    
  13   1.0000E-10  1.0000E-10  2.0000E-10  2.0000E-10  2.0000E-10  2.0000E-10  2.0000E-10  1.0000E-10  1.0000E-10   0.000    
  14    0.000      2.0000E-10  5.0000E-10  5.0000E-10  5.0000E-10  5.0000E-10  5.0000E-10  2.0000E-10  1.0000E-10   0.000    
  15    0.000       0.000      8.0000E-10  8.0000E-10  8.0000E-10  8.0000E-10   0.000       0.000       0.000       0.000    

                  ET RATE =  8.000000E-08

 USING ET EXTINCTION DEPTH FROM PREVIOUS STRESS PERIOD. CURRENT PERIOD IS:       8

 USING EXTINCTION WATER CONTENT FROM PREVIOUS STRESS PERIOD. CURRENT PERIOD IS:       8
 
 SOLVING FOR HEAD 
                                                   Max.-Head-Change                         Max.-Flux-Residual
  Residual-Control   Outer-Iter.   Inner-Iter.     Column Row Layer    Maximum-Head-Change  Column Row Layer    Maximum-Flux-Residual          L2-NORM 
          0                 1           2             7    6     1      -0.2891364614E+00       7    6    1        -0.1577721089E+02      0.1642885024E+02
          0                 2           2             7    6     1       0.3163098086E+00       7    6    1         0.1743458365E+02      0.1744518161E+02
          0                 3           2             7    6     1      -0.1809918190E-01       7    6    1        -0.1007302753E+01      0.1026436705E+01
          0                 4           2             7    6     1      -0.3193140018E-02       7    6    1        -0.1775485941E+00      0.1925701782E+00
          0                 5           2             7    6     1      -0.5640813852E-03       7    6    1        -0.3133834663E-01      0.4545234884E-01
          0                 6           2             8    3     1       0.1144442808E-03       7    6    1        -0.5538295562E-02      0.1573312853E-01
          0                 7           1             8    3     1       0.5135807213E-04       8    3    1         0.1335464787E-02      0.6665574176E-02
          0                 8           1             8    3     1       0.2304723842E-04       8    3    1         0.5993027319E-03      0.2957416380E-02
          0                 9           1             8    3     1       0.1034247794E-04       8    3    1         0.2689401372E-03      0.1322472983E-02
          0                10           1             8    3     1       0.4641152686E-05       8    3    1         0.1206870102E-03      0.5921344488E-03

    ------------------------------------------------
       NWT REQUIRED           10 OUTER ITERATIONS 
       AND A TOTAL OF         16 INNER ITERATIONS.
    ------------------------------------------------

 NO OUTPUT CONTROL FOR STRESS PERIOD    8   TIME STEP    1
 
 SOLVING FOR HEAD 
                                                   Max.-Head-Change                         Max.-Flux-Residual
  Residual-Control   Outer-Iter.   Inner-Iter.     Column Row Layer    Maximum-Head-Change  Column Row Layer    Maximum-Flux-Residual          L2-NORM 
          0                 1           2             7    6     1      -0.2891327462E+00       7    6    1        -0.1577702808E+02      0.1636880422E+02
          0                 2           2             7    6     1       0.3163093189E+00       7    6    1         0.1743456762E+02      0.1744460382E+02
          0                 3           2             7    6     1      -0.1809835796E-01       7    6    1        -0.1007258056E+01      0.1026246340E+01
          0                 4           2             7    6     1      -0.3192989319E-02       7    6    1        -0.1775404104E+00      0.1924840457E+00
          0                 5           2             7    6     1      -0.5640538680E-03       7    6    1        -0.3133685070E-01      0.4538742825E-01
          0                 6           2             8    3     1       0.1142451360E-03       7    6    1        -0.5538022642E-02      0.1569625728E-01
          0                 7           1             8    3     1       0.5126878349E-04       8    3    1         0.1333141318E-02      0.6648230396E-02
          0                 8           1             8    3     1       0.2300720565E-04       8    3    1         0.5982609832E-03      0.2949608368E-02
          0                 9           1             8    3     1       0.1032453009E-04       8    3    1         0.2684730756E-03      0.1318982575E-02
          0                10           1             8    3     1       0.4633105988E-05       8    3    1         0.1204776070E-03      0.5905774551E-03

    ------------------------------------------------
       NWT REQUIRED           10 OUTER ITERATIONS 
       AND A TOTAL OF         16 INNER ITERATIONS.
    ------------------------------------------------

 NO OUTPUT CONTROL FOR STRESS PERIOD    8   TIME STEP    2
 
 SOLVING FOR HEAD 
                                                   Max.-Head-Change                         Max.-Flux-Residual
  Residual-Control   Outer-Iter.   Inner-Iter.     Column Row Layer    Maximum-Head-Change  Column Row Layer    Maximum-Flux-Residual          L2-NORM 
          0                 1           2             7    6     1      -0.2891290625E+00       7    6    1        -0.1577684684E+02      0.1630617007E+02
          0                 2           2             7    6     1       0.3163088333E+00       7    6    1         0.1743455187E+02      0.1744401539E+02
          0                 3           2             7    6     1      -0.1809754344E-01       7    6    1        -0.1007213879E+01      0.1026064892E+01
          0                 4           2             7    6     1      -0.3192840301E-02       7    6    1        -0.1775323196E+00      0.1924037915E+00
          0                 5           2             7    6     1      -0.5640266505E-03       7    6    1        -0.3133537132E-01      0.4532662677E-01
          0                 6           2             8    3     1       0.1140471705E-03       7    6    1        -0.5537752664E-02      0.1566164918E-01
          0                 7           1             8    3     1       0.5118002496E-04       8    3    1         0.1330831614E-02      0.6631938316E-02
          0                 8           1             8    3     1       0.2296741111E-04       8    3    1         0.5972254196E-03      0.2942271128E-02
          0                 9           1             8    3     1       0.1030668880E-04       8    3    1         0.2680087885E-03      0.1315702473E-02
          0                10           1             8    3     1       0.4625107562E-05       8    3    1         0.1202694551E-03      0.5891125494E-03

    ------------------------------------------------
       NWT REQUIRED           10 OUTER ITERATIONS 
       AND A TOTAL OF         16 INNER ITERATIONS.
    ------------------------------------------------

 NO OUTPUT CONTROL FOR STRESS PERIOD    8   TIME STEP    3
 
 SOLVING FOR HEAD 
                                                   Max.-Head-Change                         Max.-Flux-Residual
  Residual-Control   Outer-Iter.   Inner-Iter.     Column Row Layer    Maximum-Head-Change  Column Row Layer    Maximum-Flux-Residual          L2-NORM 
          0                 1           2             7    6     1      -0.2891254072E+00       7    6    1        -0.1577666724E+02      0.1625220397E+02
          0                 2           2             7    6     1       0.3163083530E+00       7    6    1         0.1743453640E+02      0.1744350739E+02
          0                 3           2             7    6     1      -0.1809673741E-01       7    6    1        -0.1007170178E+01      0.1025898352E+01
          0                 4           2             7    6     1      -0.3192692770E-02       7    6    1        -0.1775243118E+00      0.1923281765E+00
          0                 5           2             7    6     1      -0.5639996941E-03       7    6    1        -0.3133390652E-01      0.4526933255E-01
          0                 6           2             8    3     1       0.1138488618E-03       7    6    1        -0.5537485254E-02      0.1562901915E-01
          0                 7           1             8    3     1       0.5109112049E-04       8    3    1         0.1328517940E-02      0.6616572890E-02
          0                 8           1             8    3     1       0.2292755504E-04       8    3    1         0.5961881728E-03      0.2935350494E-02
          0                 9           1             8    3     1       0.1028882162E-04       8    3    1         0.2675437896E-03      0.1312608146E-02
          0                10           1             8    3     1       0.4617097756E-05       8    3    1         0.1200609989E-03      0.5877307929E-03

    ------------------------------------------------
       NWT REQUIRED           10 OUTER ITERATIONS 
       AND A TOTAL OF         16 INNER ITERATIONS.
    ------------------------------------------------

 NO OUTPUT CONTROL FOR STRESS PERIOD    8   TIME STEP    4
 
 SOLVING FOR HEAD 
                                                   Max.-Head-Change                         Max.-Flux-Residual
  Residual-Control   Outer-Iter.   Inner-Iter.     Column Row Layer    Maximum-Head-Change  Column Row Layer    Maximum-Flux-Residual          L2-NORM 
          0                 1           2             7    6     1      -0.2891216624E+00       7    6    1        -0.1577648262E+02      0.1620541521E+02
          0                 2           2             7    6     1       0.3163078649E+00       7    6    1         0.1743452053E+02      0.1744306447E+02
          0                 3           2             7    6     1      -0.1809591173E-01       7    6    1        -0.1007125382E+01      0.1025742409E+01
          0                 4           2             7    6     1      -0.3192541773E-02       7    6    1        -0.1775161113E+00      0.1922560170E+00
          0                 5           2             7    6     1      -0.5639721254E-03       7    6    1        -0.3133240770E-01      0.4521482214E-01
          0                 6           2             8    3     1       0.1136517668E-03       7    6    1        -0.5537211831E-02      0.1559798157E-01
          0                 7           1             8    3     1       0.5100276113E-04       8    3    1         0.1326218422E-02      0.6601954862E-02
          0                 8           1             8    3     1       0.2288794383E-04       8    3    1         0.5951572849E-03      0.2928764737E-02
          0                 9           1             8    3     1       0.1027106436E-04       8    3    1         0.2670816445E-03      0.1309663238E-02
          0                10           1             8    3     1       0.4609137472E-05       8    3    1         0.1198538233E-03      0.5864145743E-03

    ------------------------------------------------
       NWT REQUIRED           10 OUTER ITERATIONS 
       AND A TOTAL OF         16 INNER ITERATIONS.
    ------------------------------------------------

 OUTPUT CONTROL FOR STRESS PERIOD    8   TIME STEP    5
    PRINT BUDGET
    SAVE BUDGET
 UBUDSV SAVING "         STORAGE" ON UNIT102 AT TIME STEP     5, STRESS PERIOD    8
 UBUDSV SAVING "   CONSTANT HEAD" ON UNIT102 AT TIME STEP     5, STRESS PERIOD    8
 UBUDSV SAVING "FLOW RIGHT FACE " ON UNIT102 AT TIME STEP     5, STRESS PERIOD    8
 UBUDSV SAVING "FLOW FRONT FACE " ON UNIT102 AT TIME STEP     5, STRESS PERIOD    8

  HEAD DEP BOUNDS   PERIOD    8   STEP     5
 BOUNDARY      1   LAYER   1   ROW    13   COL     1   RATE   -0.285409    
 BOUNDARY      2   LAYER   1   ROW    14   COL     9   RATE    0.282222    



 STREAM LISTING     PERIOD      8   STEP        5

 LAYER ROW COL. STREAM  RCH.  FLOW INTO     FLOW TO   FLOW OUT OF   OVRLND.     DIRECT     STREAM       STREAM     STREAM     STREAM   STREAMBED  STREAMBED
                SEG.NO.  NO.  STRM. RCH.    AQUIFER    STRM. RCH.    RUNOFF     PRECIP       ET          HEAD       DEPTH      WIDTH   CONDCTNC.   GRADIENT

   1    1    1     1     1    3.5000E+01  2.8629E-01   3.4714E+01  0.000E+00  0.000E+00  0.000E+00  1.09434E+03  1.292E+00  1.482E+01  6.670E-02  1.431E+00
   1    2    2     1     2    3.4714E+01  4.4325E-01   3.4270E+01  0.000E+00  0.000E+00  0.000E+00  1.08935E+03  1.289E+00  1.476E+01  1.033E-01  1.430E+00
   1    3    3     1     3    3.4270E+01  3.7790E-01   3.3893E+01  0.000E+00  0.000E+00  0.000E+00  1.08370E+03  1.286E+00  1.470E+01  8.817E-02  1.429E+00
   1    3    4     1     4    3.3893E+01  3.4789E-01   3.3545E+01  0.000E+00  0.000E+00  0.000E+00  1.07869E+03  1.283E+00  1.464E+01  8.123E-02  1.428E+00
   1    4    5     2     1    3.1545E+01  0.0000E+00   3.1545E+01  0.000E+00  0.000E+00  0.000E+00  1.07332E+03  1.388E+00  1.200E+01  0.000E+00  1.463E+00
   1    5    6     2     2    3.1545E+01  0.0000E+00   3.1545E+01  0.000E+00  0.000E+00  0.000E+00  1.06790E+03  1.388E+00  1.200E+01  0.000E+00  1.463E+00
   1    6    6     2     3    3.1545E+01  0.0000E+00   3.1545E+01  0.000E+00  0.000E+00  0.000E+00  1.06318E+03  1.388E+00  1.200E+01  0.000E+00  1.463E+00
   1    7    6     2     4    3.1545E+01  0.0000E+00   3.1545E+01  0.000E+00  0.000E+00  0.000E+00  1.05846E+03  1.388E+00  1.200E+01  0.000E+00  1.463E+00
   1    8    6     2     5    3.1545E+01  0.0000E+00   3.1545E+01  0.000E+00  0.000E+00  0.000E+00  1.05375E+03  1.388E+00  1.200E+01  0.000E+00  1.463E+00
   1    3    5     3     1    2.0000E+00  2.8252E-01   1.7175E+00  0.000E+00  0.000E+00  0.000E+00  1.07555E+03  1.909E+00  9.636E+00  7.227E-02  1.955E+00
   1    3    6     3     2    1.7175E+00  2.4905E-01   1.4684E+00  0.000E+00  0.000E+00  0.000E+00  1.07264E+03  1.727E+00  8.909E+00  6.682E-02  1.864E+00
   1    3    7     3     3    1.4684E+00  1.9718E-01   1.2712E+00  0.000E+00  0.000E+00  0.000E+00  1.06987E+03  1.555E+00  8.218E+00  5.547E-02  1.777E+00
   1    4    8     3     4    1.2712E+00  2.2567E-01   1.0456E+00  0.000E+00  0.000E+00  0.000E+00  1.06682E+03  1.364E+00  7.455E+00  6.709E-02  1.682E+00
   1    5    8     3     5    1.0456E+00  1.5790E-01   8.8768E-01  0.000E+00  0.000E+00  0.000E+00  1.06362E+03  1.164E+00  6.655E+00  4.991E-02  1.582E+00
   1    6    8     3     6    8.8768E-01  5.5980E-02   8.3170E-01  0.000E+00  0.000E+00  0.000E+00  1.06158E+03  1.036E+00  6.145E+00  1.844E-02  1.518E+00
   1    5   10     4     1    1.0000E+01  0.0000E+00   1.0000E+01  0.000E+00  0.000E+00  0.000E+00  1.07837E+03  6.385E-01  1.000E+01  0.000E+00  1.213E+00
   1    5    9     4     2    1.0000E+01  0.0000E+00   1.0000E+01  0.000E+00  0.000E+00  0.000E+00  1.07155E+03  6.385E-01  1.000E+01  0.000E+00  1.213E+00
   1    6    8     4     3    1.0000E+01  0.0000E+00   1.0000E+01  0.000E+00  0.000E+00  0.000E+00  1.06382E+03  6.385E-01  1.000E+01  0.000E+00  1.213E+00
   1    6    8     5     1    1.0832E+01  2.3262E-01   1.0599E+01  0.000E+00  0.000E+00  0.000E+00  1.05869E+03  6.881E-01  1.577E+01  6.307E-02  1.229E+00
   1    7    7     5     2    1.0599E+01  2.8607E-01   1.0313E+01  0.000E+00  0.000E+00  0.000E+00  1.05418E+03  6.822E-01  1.554E+01  7.769E-02  1.227E+00
   1    8    7     5     3    1.0313E+01  1.9716E-01   1.0116E+01  0.000E+00  0.000E+00  0.000E+00  1.04993E+03  6.766E-01  1.532E+01  5.363E-02  1.226E+00
   1    8    6     5     4    1.0116E+01  1.3929E-01   9.9766E+00  0.000E+00  0.000E+00  0.000E+00  1.04692E+03  6.727E-01  1.517E+01  3.792E-02  1.224E+00
   1    9    6     6     1    4.1521E+01  0.0000E+00   4.1521E+01  0.000E+00  0.000E+00  0.000E+00  1.04438E+03  1.656E+00  1.200E+01  0.000E+00  1.552E+00
   1   10    7     6     2    4.1521E+01  0.0000E+00   4.1521E+01  0.000E+00  0.000E+00  0.000E+00  1.03984E+03  1.656E+00  1.200E+01  0.000E+00  1.552E+00
   1   11    7     6     3    4.1521E+01  0.0000E+00   4.1521E+01  0.000E+00  0.000E+00  0.000E+00  1.03529E+03  1.656E+00  1.200E+01  0.000E+00  1.552E+00
   1   12    7     6     4    4.1521E+01  0.0000E+00   4.1521E+01  0.000E+00  0.000E+00  0.000E+00  1.03075E+03  1.656E+00  1.200E+01  0.000E+00  1.552E+00
   1   13    7     6     5    4.1521E+01  0.0000E+00   4.1521E+01  0.000E+00  0.000E+00  0.000E+00  1.02756E+03  1.656E+00  1.200E+01  0.000E+00  3.431E-01
   1   14    9     7     1    1.5000E+02  1.2839E+00   1.4872E+02  0.000E+00  0.000E+00  0.000E+00  1.03987E+03  2.288E+00  5.530E+01  5.593E-01  7.651E-01
   1   13    8     7     2    1.4872E+02  1.9399E+00   1.4678E+02  0.000E+00  0.000E+00  0.000E+00  1.03478E+03  2.279E+00  5.526E+01  6.148E-01  1.052E+00
   1   13    7     7     3    1.4678E+02  1.7609E+00   1.4502E+02  0.000E+00  0.000E+00  0.000E+00  1.02969E+03  2.269E+00  5.521E+01  5.584E-01  1.051E+00
   1   13    6     8     1    1.8654E+02  1.2288E+00   1.8531E+02  0.000E+00  0.000E+00  0.000E+00  1.02493E+03  3.053E+00  4.427E+01  4.511E-01  9.080E-01
   1   13    5     8     2    1.8531E+02  5.3205E-01   1.8478E+02  0.000E+00  0.000E+00  0.000E+00  1.01867E+03  3.048E+00  4.419E+01  4.503E-01  3.938E-01
   1   13    4     8     3    1.8478E+02 -1.1519E+00   1.8593E+02  0.000E+00  0.000E+00  0.000E+00  1.01242E+03  3.049E+00  4.422E+01  4.506E+00 -8.521E-02
   1   13    3     8     4    1.8593E+02 -2.8527E+00   1.8878E+02  0.000E+00  0.000E+00  0.000E+00  1.00619E+03  3.062E+00  4.440E+01  4.524E+00 -2.102E-01
   1   13    2     8     5    1.8878E+02 -2.0964E+00   1.9088E+02  0.000E+00  0.000E+00  0.000E+00  9.99952E+02  3.077E+00  4.462E+01  4.546E+00 -1.537E-01
   1   13    1     8     6    1.9088E+02 -1.5001E+00   1.9238E+02  0.000E+00  0.000E+00  0.000E+00  9.94963E+02  3.088E+00  4.477E+01  2.738E+00 -1.827E-01
   1    6    8     9     1    0.0000E+00  0.0000E+00   0.0000E+00  0.000E+00  0.000E+00  0.000E+00  1.07850E+03  0.000E+00  4.000E+00  0.000E+00  1.000E+00



 UBDSV3 SAVING "     NETRECHARGE" ON UNIT 100 AT TIME STEP     5, STRESS PERIOD   8
 UBDSV3 SAVING "    NETDISCHARGE" ON UNIT 101 AT TIME STEP     5, STRESS PERIOD   8
 UBDSV3 SAVING "           GW ET" ON UNIT  61 AT TIME STEP     5, STRESS PERIOD   8
 UBDSV3 SAVING "    UZF RECHARGE" ON UNIT  61 AT TIME STEP     5, STRESS PERIOD   8
 UBDSV3 SAVING " SURFACE LEAKAGE" ON UNIT  61 AT TIME STEP     5, STRESS PERIOD   8
 UBDSV3 SAVING "       HORT+DUNN" ON UNIT  61 AT TIME STEP     5, STRESS PERIOD   8
 UBDSV3 SAVING "  STORAGE CHANGE" ON UNIT  61 AT TIME STEP     5, STRESS PERIOD   8


UNSATURATED ZONE PACKAGE VOLUMETRIC BUDGET FOR  TIME STEP     5 STRESS PERIOD    8
  ------------------------------------------------------------------------------



     CUMULATIVE VOLUMES      L**3       RATES FOR THIS TIME STEP      L**3/T
     ------------------                 ------------------------

           IN:                                      IN:
           ---                                      ---
        INFILTRATION =    15961938.1784          INFILTRATION =           0.8475

          OUT:                                     OUT:
          ----                                     ----
              UZF ET =   432811889.0838                UZF ET =         222.3408
        UZF RECHARGE =   446468898.9072          UZF RECHARGE =          25.0242

            IN - OUT =  -863318849.8126              IN - OUT =        -246.5174

          STORAGE:                                 STORAGE:
          --------                                 --------
      STORAGE CHANGE =  -863311563.3199        STORAGE CHANGE =        -246.5171

 PERCENT DISCREPANCY IS DIFFERENCE BETWEEN IN-OUT MINUS CHANGE IN STORAGE
 DIVIDED BY THE AVERAGE OF IN AND OUT TIMES 100

 PERCENT DISCREPANCY =          -0.00     PERCENT DISCREPANCY =          -0.00






1
  VOLUMETRIC BUDGET FOR ENTIRE MODEL AT END OF TIME STEP    5, STRESS PERIOD   8
  ------------------------------------------------------------------------------

     CUMULATIVE VOLUMES      L**3       RATES FOR THIS TIME STEP      L**3/T
     ------------------                 ------------------------

           IN:                                      IN:
           ---                                      ---
             STORAGE =    11821695.0000               STORAGE =           7.1995
       CONSTANT HEAD =           0.0000         CONSTANT HEAD =           0.0000
               WELLS =           0.0000                 WELLS =           0.0000
     HEAD DEP BOUNDS =     5406664.5000       HEAD DEP BOUNDS =           0.2822
      STREAM LEAKAGE =   199751136.0000        STREAM LEAKAGE =          10.2243
        UZF RECHARGE =   446468928.0000          UZF RECHARGE =          25.0242
               GW ET =           0.0000                 GW ET =           0.0000
     SURFACE LEAKAGE =           0.0000       SURFACE LEAKAGE =           0.0000

            TOTAL IN =   663448448.0000              TOTAL IN =          42.7301

          OUT:                                     OUT:
          ----                                     ----
             STORAGE =   480683712.0000               STORAGE =          24.8616
       CONSTANT HEAD =           0.0000         CONSTANT HEAD =           0.0000
               WELLS =           0.0000                 WELLS =           0.0000
     HEAD DEP BOUNDS =     5494499.0000       HEAD DEP BOUNDS =           0.2854
      STREAM LEAKAGE =   159787648.0000        STREAM LEAKAGE =           7.6010
        UZF RECHARGE =           0.0000          UZF RECHARGE =           0.0000
               GW ET =    17445194.0000                 GW ET =           9.9801
     SURFACE LEAKAGE =           0.0000       SURFACE LEAKAGE =           0.0000

           TOTAL OUT =   663411008.0000             TOTAL OUT =          42.7282

            IN - OUT =       37440.0000              IN - OUT =       1.8997E-03

 PERCENT DISCREPANCY =           0.01     PERCENT DISCREPANCY =           0.00






         TIME SUMMARY AT END OF TIME STEP    5 IN STRESS PERIOD    8
                    SECONDS     MINUTES      HOURS       DAYS        YEARS
                    -----------------------------------------------------------
   TIME STEP LENGTH  87600.      1460.0      24.333      1.0139     2.77588E-03
 STRESS PERIOD TIME 4.38000E+05  7300.0      121.67      5.0694     1.38794E-02
         TOTAL TIME 1.88340E+07 3.13900E+05  5231.7      217.99     0.59681    
1
 
 SOLVING FOR HEAD 
                                                   Max.-Head-Change                         Max.-Flux-Residual
  Residual-Control   Outer-Iter.   Inner-Iter.     Column Row Layer    Maximum-Head-Change  Column Row Layer    Maximum-Flux-Residual          L2-NORM 
          0                 1           2             7    6     1      -0.2891180715E+00       7    6    1        -0.1577630641E+02      0.1616502178E+02
          0                 2           2             7    6     1       0.3163073940E+00       7    6    1         0.1743450562E+02      0.1744268092E+02
          0                 3           2             7    6     1      -0.1809512472E-01       7    6    1        -0.1007082736E+01      0.1025599488E+01
          0                 4           2             7    6     1      -0.3192397610E-02       7    6    1        -0.1775082903E+00      0.1921876951E+00
          0                 5           2             7    6     1      -0.5639457659E-03       7    6    1        -0.3133097598E-01      0.4516303382E-01
          0                 6           2             8    3     1       0.1134543031E-03       7    6    1        -0.5536950286E-02      0.1556846230E-01
          0                 7           1             8    3     1       0.5091424083E-04       8    3    1         0.1323914638E-02      0.6588046716E-02
          0                 8           1             8    3     1       0.2284826233E-04       8    3    1         0.5941245367E-03      0.2922497914E-02
          0                 9           1             8    3     1       0.1025327646E-04       8    3    1         0.2666186916E-03      0.1306860747E-02
          0                10           1             8    3     1       0.4601164182E-05       8    3    1         0.1196463000E-03      0.5851625972E-03

    ------------------------------------------------
       NWT REQUIRED           10 OUTER ITERATIONS 
       AND A TOTAL OF         16 INNER ITERATIONS.
    ------------------------------------------------

 NO OUTPUT CONTROL FOR STRESS PERIOD    8   TIME STEP    6
 
 SOLVING FOR HEAD 
                                                   Max.-Head-Change                         Max.-Flux-Residual
  Residual-Control   Outer-Iter.   Inner-Iter.     Column Row Layer    Maximum-Head-Change  Column Row Layer    Maximum-Flux-Residual          L2-NORM 
          0                 1           2             7    6     1      -0.2891143881E+00       7    6    1        -0.1577612513E+02      0.1627766390E+02
          0                 2           2             7    6     1       0.3163069155E+00       7    6    1         0.1743449031E+02      0.1744370056E+02
          0                 3           2             7    6     1      -0.1809431701E-01       7    6    1        -0.1007038941E+01      0.1025642096E+01
          0                 4           2             7    6     1      -0.3192249783E-02       7    6    1        -0.1775002661E+00      0.1921181392E+00
          0                 5           2             7    6     1      -0.5639187575E-03       7    6    1        -0.3132950829E-01      0.4510599966E-01
          0                 6           2             8    3     1       0.1132580675E-03       7    6    1        -0.5536682350E-02      0.1553795964E-01
          0                 7           1             8    3     1       0.5082627203E-04       8    3    1         0.1321625186E-02      0.6670008280E-02
          0                 8           1             8    3     1       0.2280882908E-04       8    3    1         0.5930982319E-03      0.2919689208E-02
          0                 9           1             8    3     1       0.1023559986E-04       8    3    1         0.2661586301E-03      0.1345812645E-02
          0                10           1             4   13     1      -0.5892253349E-05       4   13    1        -0.3513156935E-03      0.8299432846E-03

    ------------------------------------------------
       NWT REQUIRED           10 OUTER ITERATIONS 
       AND A TOTAL OF         16 INNER ITERATIONS.
    ------------------------------------------------

 NO OUTPUT CONTROL FOR STRESS PERIOD    8   TIME STEP    7
 
 SOLVING FOR HEAD 
                                                   Max.-Head-Change                         Max.-Flux-Residual
  Residual-Control   Outer-Iter.   Inner-Iter.     Column Row Layer    Maximum-Head-Change  Column Row Layer    Maximum-Flux-Residual          L2-NORM 
          0                 1           2             7    6     1      -0.2878659111E+00       7    6    1        -0.1570806668E+02      0.1617292739E+02
          0                 2           2             7    6     1       0.3149496454E+00       7    6    1         0.1735968057E+02      0.1736856892E+02
          0                 3           2             7    6     1      -0.1800144007E-01       7    6    1        -0.1001873202E+01      0.1020431450E+01
          0                 4           2             7    6     1      -0.3175847970E-02       7    6    1        -0.1765888438E+00      0.1912106658E+00
          0                 5           2             7    6     1      -0.5610185250E-03       7    6    1        -0.3116848178E-01      0.4493997210E-01
          0                 6           2             8    3     1       0.1130630059E-03       7    6    1        -0.5508197816E-02      0.1549419758E-01
          0                 7           1             8    3     1       0.5073882758E-04       8    3    1         0.1319349412E-02      0.6557024590E-02
          0                 8           1             8    3     1       0.2276962842E-04       8    3    1         0.5920780159E-03      0.2908798060E-02
          0                 9           1             8    3     1       0.1021802769E-04       8    3    1         0.2657012904E-03      0.1300751489E-02
          0                10           1             8    3     1       0.4585363542E-05       8    3    1         0.1192350599E-03      0.5824339713E-03

    ------------------------------------------------
       NWT REQUIRED           10 OUTER ITERATIONS 
       AND A TOTAL OF         16 INNER ITERATIONS.
    ------------------------------------------------

 NO OUTPUT CONTROL FOR STRESS PERIOD    8   TIME STEP    8
 
 SOLVING FOR HEAD 
                                                   Max.-Head-Change                         Max.-Flux-Residual
  Residual-Control   Outer-Iter.   Inner-Iter.     Column Row Layer    Maximum-Head-Change  Column Row Layer    Maximum-Flux-Residual          L2-NORM 
          0                 1           2             7    6     1      -0.2891072352E+00       7    6    1        -0.1577577394E+02      0.1620458830E+02
          0                 2           2             7    6     1       0.3163059832E+00       7    6    1         0.1743446114E+02      0.1744298214E+02
          0                 3           2             7    6     1      -0.1809275823E-01       7    6    1        -0.1006954491E+01      0.1025368077E+01
          0                 4           2             7    6     1      -0.3191964177E-02       7    6    1        -0.1774847744E+00      0.1919791721E+00
          0                 5           2             7    6     1      -0.5638665241E-03       7    6    1        -0.3132667169E-01      0.4499887509E-01
          0                 6           2             8    3     1       0.1128692315E-03       7    6    1        -0.5536164060E-02      0.1547451767E-01
          0                 7           1             8    3     1       0.5065196676E-04       8    3    1         0.1317088698E-02      0.6543773383E-02
          0                 8           1             8    3     1       0.2273069376E-04       8    3    1         0.5910646416E-03      0.2902591776E-02
          0                 9           1             8    3     1       0.1020057519E-04       8    3    1         0.2652470440E-03      0.1298129156E-02
          0                10           1             8    3     1       0.4577540694E-05       8    3    1         0.1190314518E-03      0.5817057415E-03

    ------------------------------------------------
       NWT REQUIRED           10 OUTER ITERATIONS 
       AND A TOTAL OF         16 INNER ITERATIONS.
    ------------------------------------------------

 NO OUTPUT CONTROL FOR STRESS PERIOD    8   TIME STEP    9
 
 SOLVING FOR HEAD 
                                                   Max.-Head-Change                         Max.-Flux-Residual
  Residual-Control   Outer-Iter.   Inner-Iter.     Column Row Layer    Maximum-Head-Change  Column Row Layer    Maximum-Flux-Residual          L2-NORM 
          0                 1           2             7    6     1      -0.2884676580E+00       7    6    1        -0.1574091798E+02      0.1614034952E+02
          0                 2           2             7    6     1       0.3156122691E+00       7    6    1         0.1739623055E+02      0.1740449820E+02
          0                 3           2             7    6     1      -0.1804494368E-01       7    6    1        -0.1004295632E+01      0.1022644154E+01
          0                 4           2             7    6     1      -0.3183517752E-02       7    6    1        -0.1770155122E+00      0.1914860071E+00
          0                 5           2             7    6     1      -0.5623725733E-03       7    6    1        -0.3124374008E-01      0.4489280816E-01
          0                 6           2             8    3     1       0.1126751012E-03       7    6    1        -0.5521489991E-02      0.1544437433E-01
          0                 7           1             8    3     1       0.5056494975E-04       8    3    1         0.1314823837E-02      0.6529943709E-02
          0                 8           1             8    3     1       0.2269168994E-04       8    3    1         0.5900494441E-03      0.2896510109E-02
          0                 9           1             8    3     1       0.1018309318E-04       8    3    1         0.2647920031E-03      0.1295293196E-02
          0                10           1             8    3     1       0.4569704840E-05       8    3    1         0.1188274879E-03      0.5802042907E-03

    ------------------------------------------------
       NWT REQUIRED           10 OUTER ITERATIONS 
       AND A TOTAL OF         16 INNER ITERATIONS.
    ------------------------------------------------

 OUTPUT CONTROL FOR STRESS PERIOD    8   TIME STEP   10
    PRINT BUDGET
    SAVE BUDGET
 UBUDSV SAVING "         STORAGE" ON UNIT102 AT TIME STEP    10, STRESS PERIOD    8
 UBUDSV SAVING "   CONSTANT HEAD" ON UNIT102 AT TIME STEP    10, STRESS PERIOD    8
 UBUDSV SAVING "FLOW RIGHT FACE " ON UNIT102 AT TIME STEP    10, STRESS PERIOD    8
 UBUDSV SAVING "FLOW FRONT FACE " ON UNIT102 AT TIME STEP    10, STRESS PERIOD    8

  HEAD DEP BOUNDS   PERIOD    8   STEP    10
 BOUNDARY      1   LAYER   1   ROW    13   COL     1   RATE   -0.281263    
 BOUNDARY      2   LAYER   1   ROW    14   COL     9   RATE    0.282172    



 STREAM LISTING     PERIOD      8   STEP       10

 LAYER ROW COL. STREAM  RCH.  FLOW INTO     FLOW TO   FLOW OUT OF   OVRLND.     DIRECT     STREAM       STREAM     STREAM     STREAM   STREAMBED  STREAMBED
                SEG.NO.  NO.  STRM. RCH.    AQUIFER    STRM. RCH.    RUNOFF     PRECIP       ET          HEAD       DEPTH      WIDTH   CONDCTNC.   GRADIENT

   1    1    1     1     1    3.5000E+01  2.8629E-01   3.4714E+01  0.000E+00  0.000E+00  0.000E+00  1.09434E+03  1.292E+00  1.482E+01  6.670E-02  1.431E+00
   1    2    2     1     2    3.4714E+01  4.4325E-01   3.4270E+01  0.000E+00  0.000E+00  0.000E+00  1.08935E+03  1.289E+00  1.476E+01  1.033E-01  1.430E+00
   1    3    3     1     3    3.4270E+01  3.7790E-01   3.3893E+01  0.000E+00  0.000E+00  0.000E+00  1.08370E+03  1.286E+00  1.470E+01  8.817E-02  1.429E+00
   1    3    4     1     4    3.3893E+01  3.4789E-01   3.3545E+01  0.000E+00  0.000E+00  0.000E+00  1.07869E+03  1.283E+00  1.464E+01  8.123E-02  1.428E+00
   1    4    5     2     1    3.1545E+01  0.0000E+00   3.1545E+01  0.000E+00  0.000E+00  0.000E+00  1.07332E+03  1.388E+00  1.200E+01  0.000E+00  1.463E+00
   1    5    6     2     2    3.1545E+01  0.0000E+00   3.1545E+01  0.000E+00  0.000E+00  0.000E+00  1.06790E+03  1.388E+00  1.200E+01  0.000E+00  1.463E+00
   1    6    6     2     3    3.1545E+01  0.0000E+00   3.1545E+01  0.000E+00  0.000E+00  0.000E+00  1.06318E+03  1.388E+00  1.200E+01  0.000E+00  1.463E+00
   1    7    6     2     4    3.1545E+01  0.0000E+00   3.1545E+01  0.000E+00  0.000E+00  0.000E+00  1.05846E+03  1.388E+00  1.200E+01  0.000E+00  1.463E+00
   1    8    6     2     5    3.1545E+01  0.0000E+00   3.1545E+01  0.000E+00  0.000E+00  0.000E+00  1.05375E+03  1.388E+00  1.200E+01  0.000E+00  1.463E+00
   1    3    5     3     1    2.0000E+00  2.8252E-01   1.7175E+00  0.000E+00  0.000E+00  0.000E+00  1.07555E+03  1.909E+00  9.636E+00  7.227E-02  1.955E+00
   1    3    6     3     2    1.7175E+00  2.4905E-01   1.4684E+00  0.000E+00  0.000E+00  0.000E+00  1.07264E+03  1.727E+00  8.909E+00  6.682E-02  1.864E+00
   1    3    7     3     3    1.4684E+00  1.9718E-01   1.2712E+00  0.000E+00  0.000E+00  0.000E+00  1.06987E+03  1.555E+00  8.218E+00  5.547E-02  1.777E+00
   1    4    8     3     4    1.2712E+00  2.2567E-01   1.0456E+00  0.000E+00  0.000E+00  0.000E+00  1.06682E+03  1.364E+00  7.455E+00  6.709E-02  1.682E+00
   1    5    8     3     5    1.0456E+00  1.5790E-01   8.8768E-01  0.000E+00  0.000E+00  0.000E+00  1.06362E+03  1.164E+00  6.655E+00  4.991E-02  1.582E+00
   1    6    8     3     6    8.8768E-01  5.5980E-02   8.3170E-01  0.000E+00  0.000E+00  0.000E+00  1.06158E+03  1.036E+00  6.145E+00  1.844E-02  1.518E+00
   1    5   10     4     1    1.0000E+01  0.0000E+00   1.0000E+01  0.000E+00  0.000E+00  0.000E+00  1.07837E+03  6.385E-01  1.000E+01  0.000E+00  1.213E+00
   1    5    9     4     2    1.0000E+01  0.0000E+00   1.0000E+01  0.000E+00  0.000E+00  0.000E+00  1.07155E+03  6.385E-01  1.000E+01  0.000E+00  1.213E+00
   1    6    8     4     3    1.0000E+01  0.0000E+00   1.0000E+01  0.000E+00  0.000E+00  0.000E+00  1.06382E+03  6.385E-01  1.000E+01  0.000E+00  1.213E+00
   1    6    8     5     1    1.0832E+01  2.3262E-01   1.0599E+01  0.000E+00  0.000E+00  0.000E+00  1.05869E+03  6.881E-01  1.577E+01  6.307E-02  1.229E+00
   1    7    7     5     2    1.0599E+01  2.8607E-01   1.0313E+01  0.000E+00  0.000E+00  0.000E+00  1.05418E+03  6.822E-01  1.554E+01  7.769E-02  1.227E+00
   1    8    7     5     3    1.0313E+01  1.9716E-01   1.0116E+01  0.000E+00  0.000E+00  0.000E+00  1.04993E+03  6.766E-01  1.532E+01  5.363E-02  1.226E+00
   1    8    6     5     4    1.0116E+01  1.3929E-01   9.9766E+00  0.000E+00  0.000E+00  0.000E+00  1.04692E+03  6.727E-01  1.517E+01  3.792E-02  1.224E+00
   1    9    6     6     1    4.1507E+01  0.0000E+00   4.1507E+01  0.000E+00  0.000E+00  0.000E+00  1.04438E+03  1.655E+00  1.200E+01  0.000E+00  1.552E+00
   1   10    7     6     2    4.1507E+01  0.0000E+00   4.1507E+01  0.000E+00  0.000E+00  0.000E+00  1.03984E+03  1.655E+00  1.200E+01  0.000E+00  1.552E+00
   1   11    7     6     3    4.1507E+01  0.0000E+00   4.1507E+01  0.000E+00  0.000E+00  0.000E+00  1.03529E+03  1.655E+00  1.200E+01  0.000E+00  1.552E+00
   1   12    7     6     4    4.1507E+01  0.0000E+00   4.1507E+01  0.000E+00  0.000E+00  0.000E+00  1.03075E+03  1.655E+00  1.200E+01  0.000E+00  1.552E+00
   1   13    7     6     5    4.1507E+01  0.0000E+00   4.1507E+01  0.000E+00  0.000E+00  0.000E+00  1.02756E+03  1.655E+00  1.200E+01  0.000E+00  3.430E-01
   1   14    9     7     1    1.5000E+02  1.2831E+00   1.4872E+02  0.000E+00  0.000E+00  0.000E+00  1.03987E+03  2.288E+00  5.530E+01  5.593E-01  7.647E-01
   1   13    8     7     2    1.4872E+02  1.9381E+00   1.4678E+02  0.000E+00  0.000E+00  0.000E+00  1.03478E+03  2.279E+00  5.526E+01  6.148E-01  1.051E+00
   1   13    7     7     3    1.4678E+02  1.7609E+00   1.4502E+02  0.000E+00  0.000E+00  0.000E+00  1.02969E+03  2.269E+00  5.521E+01  5.584E-01  1.051E+00
   1   13    6     8     1    1.8652E+02  1.2938E+00   1.8523E+02  0.000E+00  0.000E+00  0.000E+00  1.02493E+03  3.053E+00  4.426E+01  4.511E-01  9.561E-01
   1   13    5     8     2    1.8523E+02  5.8168E-01   1.8465E+02  0.000E+00  0.000E+00  0.000E+00  1.01867E+03  3.047E+00  4.418E+01  4.502E-01  4.307E-01
   1   13    4     8     3    1.8465E+02 -7.6703E-01   1.8542E+02  0.000E+00  0.000E+00  0.000E+00  1.01242E+03  3.048E+00  4.419E+01  4.503E+00 -5.678E-02
   1   13    3     8     4    1.8542E+02 -2.4786E+00   1.8790E+02  0.000E+00  0.000E+00  0.000E+00  1.00618E+03  3.058E+00  4.433E+01  4.518E+00 -1.829E-01
   1   13    2     8     5    1.8790E+02 -1.6420E+00   1.8954E+02  0.000E+00  0.000E+00  0.000E+00  9.99945E+02  3.070E+00  4.452E+01  4.536E+00 -1.207E-01
   1   13    1     8     6    1.8954E+02 -1.2223E+00   1.9076E+02  0.000E+00  0.000E+00  0.000E+00  9.94954E+02  3.079E+00  4.464E+01  2.730E+00 -1.493E-01
   1    6    8     9     1    1.4324E-02  0.0000E+00   1.4324E-02  0.000E+00  0.000E+00  0.000E+00  1.07851E+03  1.060E-02  4.000E+00  0.000E+00  1.004E+00



 UBDSV3 SAVING "     NETRECHARGE" ON UNIT 100 AT TIME STEP    10, STRESS PERIOD   8
 UBDSV3 SAVING "    NETDISCHARGE" ON UNIT 101 AT TIME STEP    10, STRESS PERIOD   8
 UBDSV3 SAVING "           GW ET" ON UNIT  61 AT TIME STEP    10, STRESS PERIOD   8
 UBDSV3 SAVING "    UZF RECHARGE" ON UNIT  61 AT TIME STEP    10, STRESS PERIOD   8
 UBDSV3 SAVING " SURFACE LEAKAGE" ON UNIT  61 AT TIME STEP    10, STRESS PERIOD   8
 UBDSV3 SAVING "       HORT+DUNN" ON UNIT  61 AT TIME STEP    10, STRESS PERIOD   8
 UBDSV3 SAVING "  STORAGE CHANGE" ON UNIT  61 AT TIME STEP    10, STRESS PERIOD   8


UNSATURATED ZONE PACKAGE VOLUMETRIC BUDGET FOR  TIME STEP    10 STRESS PERIOD    8
  ------------------------------------------------------------------------------



     CUMULATIVE VOLUMES      L**3       RATES FOR THIS TIME STEP      L**3/T
     ------------------                 ------------------------

           IN:                                      IN:
           ---                                      ---
        INFILTRATION =    16343383.2469          INFILTRATION =           0.8618

          OUT:                                     OUT:
          ----                                     ----
              UZF ET =   529301548.3966                UZF ET =         219.6365
        UZF RECHARGE =   457369654.8701          UZF RECHARGE =          24.8001

            IN - OUT =  -970327820.0199              IN - OUT =        -243.5748

          STORAGE:                                 STORAGE:
          --------                                 --------
      STORAGE CHANGE =  -970320499.6700        STORAGE CHANGE =        -243.5748

 PERCENT DISCREPANCY IS DIFFERENCE BETWEEN IN-OUT MINUS CHANGE IN STORAGE
 DIVIDED BY THE AVERAGE OF IN AND OUT TIMES 100

 PERCENT DISCREPANCY =          -0.00     PERCENT DISCREPANCY =           0.00






1
  VOLUMETRIC BUDGET FOR ENTIRE MODEL AT END OF TIME STEP   10, STRESS PERIOD   8
  ------------------------------------------------------------------------------

     CUMULATIVE VOLUMES      L**3       RATES FOR THIS TIME STEP      L**3/T
     ------------------                 ------------------------

           IN:                                      IN:
           ---                                      ---
             STORAGE =    15177989.0000               STORAGE =           7.3788
       CONSTANT HEAD =           0.0000         CONSTANT HEAD =           0.0000
               WELLS =           0.0000                 WELLS =           0.0000
     HEAD DEP BOUNDS =     5530265.0000       HEAD DEP BOUNDS =           0.2822
      STREAM LEAKAGE =   204256496.0000        STREAM LEAKAGE =          10.3363
        UZF RECHARGE =   457369664.0000          UZF RECHARGE =          24.8001
               GW ET =           0.0000                 GW ET =           0.0000
     SURFACE LEAKAGE =           0.0000       SURFACE LEAKAGE =           0.0000

            TOTAL IN =   682334400.0000              TOTAL IN =          42.7972

          OUT:                                     OUT:
          ----                                     ----
             STORAGE =   491456032.0000               STORAGE =          24.4292
       CONSTANT HEAD =           0.0000         CONSTANT HEAD =           0.0000
               WELLS =           0.0000                 WELLS =           0.0000
     HEAD DEP BOUNDS =     5618385.5000       HEAD DEP BOUNDS =           0.2813
      STREAM LEAKAGE =   162705936.0000        STREAM LEAKAGE =           6.1099
        UZF RECHARGE =           0.0000          UZF RECHARGE =           0.0000
               GW ET =    22515876.0000                 GW ET =          11.9750
     SURFACE LEAKAGE =           0.0000       SURFACE LEAKAGE =           0.0000

           TOTAL OUT =   682296256.0000             TOTAL OUT =          42.7954

            IN - OUT =       38144.0000              IN - OUT =       1.8539E-03

 PERCENT DISCREPANCY =           0.01     PERCENT DISCREPANCY =           0.00






         TIME SUMMARY AT END OF TIME STEP   10 IN STRESS PERIOD    8
                    SECONDS     MINUTES      HOURS       DAYS        YEARS
                    -----------------------------------------------------------
   TIME STEP LENGTH  87600.      1460.0      24.333      1.0139     2.77588E-03
 STRESS PERIOD TIME 8.76000E+05  14600.      243.33      10.139     2.77588E-02
         TOTAL TIME 1.92720E+07 3.21200E+05  5353.3      223.06     0.61069    
1
 
 SOLVING FOR HEAD 
                                                   Max.-Head-Change                         Max.-Flux-Residual
  Residual-Control   Outer-Iter.   Inner-Iter.     Column Row Layer    Maximum-Head-Change  Column Row Layer    Maximum-Flux-Residual          L2-NORM 
          0                 1           2             7    6     1      -0.2888375072E+00       7    6    1        -0.1576110476E+02      0.1613319335E+02
          0                 2           2             7    6     1       0.3160187753E+00       7    6    1         0.1741865078E+02      0.1742559436E+02
          0                 3           2             7    6     1      -0.1844566412E+00       7    6    1        -0.1024576569E+02      0.1024756235E+02
          0                 4           2             7    6     1       0.1699173058E+00       7    6    1         0.9523445061E+01      0.9523824281E+01
          0                 5           2             7    6     1      -0.5990294052E-02       7    6    1        -0.3399235057E+00      0.3448064960E+00
          0                 6           2             7    6     1      -0.1144087150E-02       7    6    1        -0.6486148999E-01      0.6677422767E-01
          0                 7           2             7    6     1      -0.2187716020E-03       7    6    1        -0.1239207096E-01      0.1399443578E-01
          0                 8           1             7    6     1      -0.4187933886E-04       7    6    1        -0.2370334044E-02      0.3737133098E-02
          0                 9           1             8    3     1       0.1016582676E-04       7    6    1        -0.4538778646E-03      0.1370742060E-02
          0                10           1             8    3     1       0.4561985413E-05       8    3    1         0.1186261401E-03      0.5857762396E-03

    ------------------------------------------------
       NWT REQUIRED           10 OUTER ITERATIONS 
       AND A TOTAL OF         17 INNER ITERATIONS.
    ------------------------------------------------

 NO OUTPUT CONTROL FOR STRESS PERIOD    8   TIME STEP   11
 
 SOLVING FOR HEAD 
                                                   Max.-Head-Change                         Max.-Flux-Residual
  Residual-Control   Outer-Iter.   Inner-Iter.     Column Row Layer    Maximum-Head-Change  Column Row Layer    Maximum-Flux-Residual          L2-NORM 
          0                 1           2             7    6     1      -0.1658000337E+00       7    6    1        -0.9052022316E+01      0.9641795450E+01
          0                 2           2             7    6     1       0.1823287641E+00       7    6    1         0.1003267979E+02      0.1004498960E+02
          0                 3           2             7    6     1      -0.2655315340E+00       7    6    1        -0.1474749250E+02      0.1474858103E+02
     PET DIFF ERROR     6    7   -0.3667803338E-08    0.7999999774E-07
     PET DIFF ERROR     6    8   -0.3667803338E-08    0.7999999774E-07
          0                 4           2             7    6     1       0.2676914607E+00       7    6    1         0.1502796637E+02      0.1502834044E+02
          0                 5           2             7    6     1      -0.2590834805E+00       7    6    1        -0.1465400972E+02      0.1465419810E+02
          0                 6           2             7    6     1       0.2538164872E+00       7    6    1         0.1451080740E+02      0.1451100363E+02
          0                 7           2             7    6     1      -0.6499486366E-02       7    6    1        -0.3757568070E+00      0.3809347833E+00
          0                 8           2             7    6     1      -0.1335360421E-02       7    6    1        -0.7713416253E-01      0.7784260973E-01
          0                 9           2             7    6     1      -0.2746398388E-03       7    6    1        -0.1585097129E-01      0.1598030537E-01
          0                10           1             7    6     1      -0.5653859762E-04       7    6    1        -0.3260649959E-02      0.3320088053E-02
                                                   Max.-Head-Change                         Max.-Flux-Residual
  Residual-Control   Outer-Iter.   Inner-Iter.     Column Row Layer    Maximum-Head-Change  Column Row Layer    Maximum-Flux-Residual          L2-NORM 
          0                11           1             7    6     1      -0.1164965151E-04       7    6    1        -0.6713654243E-03      0.7210597891E-03
          0                12           1             7    6     1      -0.2402369160E-05       7    6    1        -0.1383547503E-03      0.1812623563E-03

    ------------------------------------------------
       NWT REQUIRED           12 OUTER ITERATIONS 
       AND A TOTAL OF         21 INNER ITERATIONS.
    ------------------------------------------------

 NO OUTPUT CONTROL FOR STRESS PERIOD    8   TIME STEP   12
 
 SOLVING FOR HEAD 
                                                   Max.-Head-Change                         Max.-Flux-Residual
  Residual-Control   Outer-Iter.   Inner-Iter.     Column Row Layer    Maximum-Head-Change  Column Row Layer    Maximum-Flux-Residual          L2-NORM 
          0                 1           2             7    6     1      -0.2524671394E+00       7    6    1        -0.1377790451E+02      0.1414766323E+02
          0                 2           2             7    6     1       0.2763871621E+00       7    6    1         0.1523393292E+02      0.1525212982E+02
          0                 3           2             7    6     1      -0.1537993679E-01       7    6    1        -0.8560405055E+00      0.8777734295E+00
          0                 4           2             7    6     1      -0.2713021727E-02       7    6    1        -0.1508657980E+00      0.1674349267E+00
          0                 5           2             7    6     1      -0.4792005278E-03       7    6    1        -0.2662502743E-01      0.4165943293E-01
          0                 6           2             8    3     1       0.1120982948E-03       7    6    1        -0.4704682359E-02      0.1508418592E-01
          0                 7           1             8    3     1       0.5030639771E-04       8    3    1         0.1308094411E-02      0.6470731659E-02
          0                 8           1             8    3     1       0.2257579611E-04       8    3    1         0.5870329959E-03      0.2877409663E-02
          0                 9           1             8    3     1       0.1013114511E-04       8    3    1         0.2634399084E-03      0.1287227024E-02
          0                10           1             8    3     1       0.4546420627E-05       8    3    1         0.1182214396E-03      0.5764249970E-03

    ------------------------------------------------
       NWT REQUIRED           10 OUTER ITERATIONS 
       AND A TOTAL OF         16 INNER ITERATIONS.
    ------------------------------------------------

 NO OUTPUT CONTROL FOR STRESS PERIOD    8   TIME STEP   13
 
 SOLVING FOR HEAD 
                                                   Max.-Head-Change                         Max.-Flux-Residual
  Residual-Control   Outer-Iter.   Inner-Iter.     Column Row Layer    Maximum-Head-Change  Column Row Layer    Maximum-Flux-Residual          L2-NORM 
          0                 1           2             6   13     1      -0.3073451926E-01       6   13    1        -0.1694730054E+01      0.3085536483E+01
          0                 2           2             6   13     1       0.3326172314E-02       6   13    1         0.1885818638E+00      0.5190690820E+00
          0                 3           2             8    3     1       0.1238107285E-02       8    3    1         0.3219287663E-01      0.1677096960E+00
          0                 4           2             8    3     1       0.5556430769E-03       8    3    1         0.1444776789E-01      0.7181552721E-01
          0                 5           2             8    3     1       0.2493614483E-03       8    3    1         0.6483920042E-02      0.3197000407E-01
          0                 6           2             8    3     1       0.1119072917E-03       8    3    1         0.2909847860E-02      0.1430366968E-01
          0                 7           1             8    3     1       0.5022073618E-04       8    3    1         0.1305865856E-02      0.6404514004E-02
          0                 8           1             8    3     1       0.2253737618E-04       8    3    1         0.5860335210E-03      0.2868109049E-02
          0                 9           1             8    3     1       0.1011391259E-04       8    3    1         0.2629916316E-03      0.1284506171E-02
          0                10           1             8    3     1       0.4538690945E-05       8    3    1         0.1180203675E-03      0.5753093755E-03

    ------------------------------------------------
       NWT REQUIRED           10 OUTER ITERATIONS 
       AND A TOTAL OF         16 INNER ITERATIONS.
    ------------------------------------------------

 NO OUTPUT CONTROL FOR STRESS PERIOD    8   TIME STEP   14
 
 SOLVING FOR HEAD 
                                                   Max.-Head-Change                         Max.-Flux-Residual
  Residual-Control   Outer-Iter.   Inner-Iter.     Column Row Layer    Maximum-Head-Change  Column Row Layer    Maximum-Flux-Residual          L2-NORM 
          0                 1           2             7    6     1      -0.2890862916E+00       7    6    1        -0.1577474746E+02      0.1605028028E+02
          0                 2           2             7    6     1       0.3163032685E+00       7    6    1         0.1743437861E+02      0.1744164003E+02
          0                 3           2             7    6     1      -0.1808824099E-01       7    6    1        -0.1006709975E+01      0.1024694137E+01
          0                 4           2             7    6     1      -0.3191135545E-02       7    6    1        -0.1774398626E+00      0.1916235259E+00
          0                 5           2             7    6     1      -0.5637148217E-03       7    6    1        -0.3131843889E-01      0.4472683915E-01
          0                 6           2             8    3     1       0.1117164992E-03       7    6    1        -0.5534658266E-02      0.1531866969E-01
          0                 7           1             8    3     1       0.5013528887E-04       8    3    1         0.1303640253E-02      0.6470113455E-02
          0                 8           1             8    3     1       0.2249911194E-04       8    3    1         0.5850367904E-03      0.2869294776E-02
          0                 9           1             8    3     1       0.1009677935E-04       8    3    1         0.2625452989E-03      0.1283042342E-02
          0                10           1             8    3     1       0.4531020165E-05       8    3    1         0.1178205248E-03      0.5745103785E-03

    ------------------------------------------------
       NWT REQUIRED           10 OUTER ITERATIONS 
       AND A TOTAL OF         16 INNER ITERATIONS.
    ------------------------------------------------

 OUTPUT CONTROL FOR STRESS PERIOD    8   TIME STEP   15
    PRINT BUDGET
    PRINT HEAD FOR ALL LAYERS
    SAVE HEAD FOR ALL LAYERS
    SAVE BUDGET
 UBUDSV SAVING "         STORAGE" ON UNIT102 AT TIME STEP    15, STRESS PERIOD    8
 UBUDSV SAVING "   CONSTANT HEAD" ON UNIT102 AT TIME STEP    15, STRESS PERIOD    8
 UBUDSV SAVING "FLOW RIGHT FACE " ON UNIT102 AT TIME STEP    15, STRESS PERIOD    8
 UBUDSV SAVING "FLOW FRONT FACE " ON UNIT102 AT TIME STEP    15, STRESS PERIOD    8

  HEAD DEP BOUNDS   PERIOD    8   STEP    15
 BOUNDARY      1   LAYER   1   ROW    13   COL     1   RATE   -0.277776    
 BOUNDARY      2   LAYER   1   ROW    14   COL     9   RATE    0.282121    



 STREAM LISTING     PERIOD      8   STEP       15

 LAYER ROW COL. STREAM  RCH.  FLOW INTO     FLOW TO   FLOW OUT OF   OVRLND.     DIRECT     STREAM       STREAM     STREAM     STREAM   STREAMBED  STREAMBED
                SEG.NO.  NO.  STRM. RCH.    AQUIFER    STRM. RCH.    RUNOFF     PRECIP       ET          HEAD       DEPTH      WIDTH   CONDCTNC.   GRADIENT

   1    1    1     1     1    3.5000E+01  2.8629E-01   3.4714E+01  0.000E+00  0.000E+00  0.000E+00  1.09434E+03  1.292E+00  1.482E+01  6.670E-02  1.431E+00
   1    2    2     1     2    3.4714E+01  4.4325E-01   3.4270E+01  0.000E+00  0.000E+00  0.000E+00  1.08935E+03  1.289E+00  1.476E+01  1.033E-01  1.430E+00
   1    3    3     1     3    3.4270E+01  3.7790E-01   3.3893E+01  0.000E+00  0.000E+00  0.000E+00  1.08370E+03  1.286E+00  1.470E+01  8.817E-02  1.429E+00
   1    3    4     1     4    3.3893E+01  3.4789E-01   3.3545E+01  0.000E+00  0.000E+00  0.000E+00  1.07869E+03  1.283E+00  1.464E+01  8.123E-02  1.428E+00
   1    4    5     2     1    3.1545E+01  0.0000E+00   3.1545E+01  0.000E+00  0.000E+00  0.000E+00  1.07332E+03  1.388E+00  1.200E+01  0.000E+00  1.463E+00
   1    5    6     2     2    3.1545E+01  0.0000E+00   3.1545E+01  0.000E+00  0.000E+00  0.000E+00  1.06790E+03  1.388E+00  1.200E+01  0.000E+00  1.463E+00
   1    6    6     2     3    3.1545E+01  0.0000E+00   3.1545E+01  0.000E+00  0.000E+00  0.000E+00  1.06318E+03  1.388E+00  1.200E+01  0.000E+00  1.463E+00
   1    7    6     2     4    3.1545E+01  0.0000E+00   3.1545E+01  0.000E+00  0.000E+00  0.000E+00  1.05846E+03  1.388E+00  1.200E+01  0.000E+00  1.463E+00
   1    8    6     2     5    3.1545E+01  0.0000E+00   3.1545E+01  0.000E+00  0.000E+00  0.000E+00  1.05375E+03  1.388E+00  1.200E+01  0.000E+00  1.463E+00
   1    3    5     3     1    2.0000E+00  2.8252E-01   1.7175E+00  0.000E+00  0.000E+00  0.000E+00  1.07555E+03  1.909E+00  9.636E+00  7.227E-02  1.955E+00
   1    3    6     3     2    1.7175E+00  2.4905E-01   1.4684E+00  0.000E+00  0.000E+00  0.000E+00  1.07264E+03  1.727E+00  8.909E+00  6.682E-02  1.864E+00
   1    3    7     3     3    1.4684E+00  1.9718E-01   1.2712E+00  0.000E+00  0.000E+00  0.000E+00  1.06987E+03  1.555E+00  8.218E+00  5.547E-02  1.777E+00
   1    4    8     3     4    1.2712E+00  2.2567E-01   1.0456E+00  0.000E+00  0.000E+00  0.000E+00  1.06682E+03  1.364E+00  7.455E+00  6.709E-02  1.682E+00
   1    5    8     3     5    1.0456E+00  1.5790E-01   8.8768E-01  0.000E+00  0.000E+00  0.000E+00  1.06362E+03  1.164E+00  6.655E+00  4.991E-02  1.582E+00
   1    6    8     3     6    8.8768E-01  5.5980E-02   8.3170E-01  0.000E+00  0.000E+00  0.000E+00  1.06158E+03  1.036E+00  6.145E+00  1.844E-02  1.518E+00
   1    5   10     4     1    1.0000E+01  0.0000E+00   1.0000E+01  0.000E+00  0.000E+00  0.000E+00  1.07837E+03  6.385E-01  1.000E+01  0.000E+00  1.213E+00
   1    5    9     4     2    1.0000E+01  0.0000E+00   1.0000E+01  0.000E+00  0.000E+00  0.000E+00  1.07155E+03  6.385E-01  1.000E+01  0.000E+00  1.213E+00
   1    6    8     4     3    1.0000E+01  0.0000E+00   1.0000E+01  0.000E+00  0.000E+00  0.000E+00  1.06382E+03  6.385E-01  1.000E+01  0.000E+00  1.213E+00
   1    6    8     5     1    1.0832E+01  2.3262E-01   1.0599E+01  0.000E+00  0.000E+00  0.000E+00  1.05869E+03  6.881E-01  1.577E+01  6.307E-02  1.229E+00
   1    7    7     5     2    1.0599E+01  2.8607E-01   1.0313E+01  0.000E+00  0.000E+00  0.000E+00  1.05418E+03  6.822E-01  1.554E+01  7.769E-02  1.227E+00
   1    8    7     5     3    1.0313E+01  1.9716E-01   1.0116E+01  0.000E+00  0.000E+00  0.000E+00  1.04993E+03  6.766E-01  1.532E+01  5.363E-02  1.226E+00
   1    8    6     5     4    1.0116E+01  1.3929E-01   9.9766E+00  0.000E+00  0.000E+00  0.000E+00  1.04692E+03  6.727E-01  1.517E+01  3.792E-02  1.224E+00
   1    9    6     6     1    4.1521E+01  0.0000E+00   4.1521E+01  0.000E+00  0.000E+00  0.000E+00  1.04438E+03  1.656E+00  1.200E+01  0.000E+00  1.552E+00
   1   10    7     6     2    4.1521E+01  0.0000E+00   4.1521E+01  0.000E+00  0.000E+00  0.000E+00  1.03984E+03  1.656E+00  1.200E+01  0.000E+00  1.552E+00
   1   11    7     6     3    4.1521E+01  0.0000E+00   4.1521E+01  0.000E+00  0.000E+00  0.000E+00  1.03529E+03  1.656E+00  1.200E+01  0.000E+00  1.552E+00
   1   12    7     6     4    4.1521E+01  0.0000E+00   4.1521E+01  0.000E+00  0.000E+00  0.000E+00  1.03075E+03  1.656E+00  1.200E+01  0.000E+00  1.552E+00
   1   13    7     6     5    4.1521E+01  0.0000E+00   4.1521E+01  0.000E+00  0.000E+00  0.000E+00  1.02756E+03  1.656E+00  1.200E+01  0.000E+00  3.457E-01
   1   14    9     7     1    1.5000E+02  1.2824E+00   1.4872E+02  0.000E+00  0.000E+00  0.000E+00  1.03987E+03  2.288E+00  5.530E+01  5.593E-01  7.643E-01
   1   13    8     7     2    1.4872E+02  1.9364E+00   1.4678E+02  0.000E+00  0.000E+00  0.000E+00  1.03478E+03  2.279E+00  5.526E+01  6.148E-01  1.050E+00
   1   13    7     7     3    1.4678E+02  1.7653E+00   1.4502E+02  0.000E+00  0.000E+00  0.000E+00  1.02969E+03  2.269E+00  5.521E+01  5.584E-01  1.054E+00
   1   13    6     8     1    1.8654E+02  1.3608E+00   1.8518E+02  0.000E+00  0.000E+00  0.000E+00  1.02493E+03  3.053E+00  4.426E+01  4.511E-01  1.006E+00
   1   13    5     8     2    1.8518E+02  6.2734E-01   1.8455E+02  0.000E+00  0.000E+00  0.000E+00  1.01867E+03  3.046E+00  4.417E+01  4.501E-01  4.645E-01
   1   13    4     8     3    1.8455E+02 -4.7348E-01   1.8502E+02  0.000E+00  0.000E+00  0.000E+00  1.01242E+03  3.046E+00  4.417E+01  4.501E+00 -3.507E-02
   1   13    3     8     4    1.8502E+02 -2.1983E+00   1.8722E+02  0.000E+00  0.000E+00  0.000E+00  1.00618E+03  3.054E+00  4.429E+01  4.513E+00 -1.624E-01
   1   13    2     8     5    1.8722E+02 -1.2986E+00   1.8852E+02  0.000E+00  0.000E+00  0.000E+00  9.99940E+02  3.065E+00  4.444E+01  4.529E+00 -9.558E-02
   1   13    1     8     6    1.8852E+02 -9.8849E-01   1.8951E+02  0.000E+00  0.000E+00  0.000E+00  9.94947E+02  3.072E+00  4.454E+01  2.723E+00 -1.210E-01
   1    6    8     9     1    0.0000E+00  0.0000E+00   0.0000E+00  0.000E+00  0.000E+00  0.000E+00  1.07850E+03  0.000E+00  4.000E+00  0.000E+00  1.000E+00



 UBDSV3 SAVING "     NETRECHARGE" ON UNIT 100 AT TIME STEP    15, STRESS PERIOD   8
 UBDSV3 SAVING "    NETDISCHARGE" ON UNIT 101 AT TIME STEP    15, STRESS PERIOD   8
 UBDSV3 SAVING "           GW ET" ON UNIT  61 AT TIME STEP    15, STRESS PERIOD   8
 UBDSV3 SAVING "    UZF RECHARGE" ON UNIT  61 AT TIME STEP    15, STRESS PERIOD   8
 UBDSV3 SAVING " SURFACE LEAKAGE" ON UNIT  61 AT TIME STEP    15, STRESS PERIOD   8
 UBDSV3 SAVING "       HORT+DUNN" ON UNIT  61 AT TIME STEP    15, STRESS PERIOD   8
 UBDSV3 SAVING "  STORAGE CHANGE" ON UNIT  61 AT TIME STEP    15, STRESS PERIOD   8


UNSATURATED ZONE PACKAGE VOLUMETRIC BUDGET FOR  TIME STEP    15 STRESS PERIOD    8
  ------------------------------------------------------------------------------



     CUMULATIVE VOLUMES      L**3       RATES FOR THIS TIME STEP      L**3/T
     ------------------                 ------------------------

           IN:                                      IN:
           ---                                      ---
        INFILTRATION =    18986702.9812          INFILTRATION =           0.8475

          OUT:                                     OUT:
          ----                                     ----
              UZF ET =   546576232.1274                UZF ET =           4.8425
        UZF RECHARGE =   468179634.8223          UZF RECHARGE =          24.6080

            IN - OUT =  -995769163.9684              IN - OUT =         -28.6030

          STORAGE:                                 STORAGE:
          --------                                 --------
      STORAGE CHANGE =  -995761434.1696        STORAGE CHANGE =         -28.6030

 PERCENT DISCREPANCY IS DIFFERENCE BETWEEN IN-OUT MINUS CHANGE IN STORAGE
 DIVIDED BY THE AVERAGE OF IN AND OUT TIMES 100

 PERCENT DISCREPANCY =          -0.00     PERCENT DISCREPANCY =           0.00






1
              HEAD IN LAYER   1 AT END OF TIME STEP    15 IN STRESS PERIOD    8
  -----------------------------------------------------------------------------

           1       2       3       4       5       6       7       8       9      10
 ...................................................................................
   1  1022.87 1021.92 6999.00 6999.00 6999.00 6999.00 6999.00 6999.00 6999.00 6999.00
   2  1022.79 1022.61 1022.10 6999.00 6999.00 1023.27 1023.37 1023.29 6999.00 6999.00
   3  6999.00 1022.45 1022.26 1022.16 1022.63 1023.11 1023.47 1023.28 6999.00 6999.00
   4  1022.75 1022.35 1021.94 1021.57 1021.47 1021.53 1022.12 1023.09 1022.65 6999.00
   5  1022.65 1022.14 1021.61 1021.20 1021.16 1021.23 1021.39 1021.65 1021.60 1021.49
   6  1022.50 1021.91 1021.34 1020.92 1020.92 1021.05 1021.28 1021.59 1021.99 1022.49
   7  1022.33 1021.55 1021.01 1020.63 1020.68 1020.89 1021.23 1021.43 1022.47 6999.00
   8  6999.00 1020.90 1020.53 1020.26 1020.38 1020.69 1021.07 1021.84 1023.12 6999.00
   9  6999.00 1019.77 1019.70 1019.68 1019.94 1020.40 1020.90 1022.20 1024.00 6999.00
  10  6999.00 1017.95 1018.29 1018.81 1019.42 1020.26 1021.03 1022.80 1025.03 1025.72
  11  6999.00 1014.56 1015.54 1017.41 1018.80 1020.33 1021.73 1024.29 1027.17 6999.00
  12  1002.70 1008.03 1011.60 1015.09 1018.02 1020.84 1023.21 1027.49 1031.15 6999.00
  13   995.31 1000.23 1006.67 1012.53 1017.28 1021.91 1026.53 1031.63 1034.72 6999.00
  14  6999.00 1007.10 1009.84 1014.28 1018.71 1023.04 1027.93 1033.49 1037.58 6999.00
  15  6999.00 6999.00 1013.76 1016.34 1019.60 1022.46 6999.00 6999.00 6999.00 6999.00

 HEAD WILL BE SAVED ON UNIT   62 AT END OF TIME STEP   15, STRESS PERIOD    8
1
  VOLUMETRIC BUDGET FOR ENTIRE MODEL AT END OF TIME STEP   15, STRESS PERIOD   8
  ------------------------------------------------------------------------------

     CUMULATIVE VOLUMES      L**3       RATES FOR THIS TIME STEP      L**3/T
     ------------------                 ------------------------

           IN:                                      IN:
           ---                                      ---
             STORAGE =    18224142.0000               STORAGE =           5.8641
       CONSTANT HEAD =           0.0000         CONSTANT HEAD =           0.0000
               WELLS =           0.0000                 WELLS =           0.0000
     HEAD DEP BOUNDS =     5653843.0000       HEAD DEP BOUNDS =           0.2821
      STREAM LEAKAGE =   208793216.0000        STREAM LEAKAGE =          10.4509
        UZF RECHARGE =   468179616.0000          UZF RECHARGE =          24.6080
               GW ET =           0.0000                 GW ET =           0.0000
     SURFACE LEAKAGE =           0.0000       SURFACE LEAKAGE =           0.0000

            TOTAL IN =   700850816.0000              TOTAL IN =          41.2051

          OUT:                                     OUT:
          ----                                     ----
             STORAGE =   502080256.0000               STORAGE =          24.1425
       CONSTANT HEAD =           0.0000         CONSTANT HEAD =           0.0000
               WELLS =           0.0000                 WELLS =           0.0000
     HEAD DEP BOUNDS =     5740622.0000       HEAD DEP BOUNDS =           0.2778
      STREAM LEAKAGE =   165246832.0000        STREAM LEAKAGE =           4.9589
        UZF RECHARGE =           0.0000          UZF RECHARGE =           0.0000
               GW ET =    27744286.0000                 GW ET =          11.8241
     SURFACE LEAKAGE =           0.0000       SURFACE LEAKAGE =           0.0000

           TOTAL OUT =   700811968.0000             TOTAL OUT =          41.2033

            IN - OUT =       38848.0000              IN - OUT =       1.8234E-03

 PERCENT DISCREPANCY =           0.01     PERCENT DISCREPANCY =           0.00






         TIME SUMMARY AT END OF TIME STEP   15 IN STRESS PERIOD    8
                    SECONDS     MINUTES      HOURS       DAYS        YEARS
                    -----------------------------------------------------------
   TIME STEP LENGTH  87600.      1460.0      24.333      1.0139     2.77588E-03
 STRESS PERIOD TIME 1.31400E+06  21900.      365.00      15.208     4.16381E-02
         TOTAL TIME 1.97100E+07 3.28500E+05  5475.0      228.12     0.62457    
1
 
 SOLVING FOR HEAD 
                                                   Max.-Head-Change                         Max.-Flux-Residual
  Residual-Control   Outer-Iter.   Inner-Iter.     Column Row Layer    Maximum-Head-Change  Column Row Layer    Maximum-Flux-Residual          L2-NORM 
          0                 1           2             7    6     1      -0.2890828786E+00       7    6    1        -0.1577458040E+02      0.1602884860E+02
          0                 2           2             7    6     1       0.3163028279E+00       7    6    1         0.1743436559E+02      0.1744140545E+02
          0                 3           2             7    6     1      -0.1808751191E-01       7    6    1        -0.1006670541E+01      0.1024613270E+01
          0                 4           2             7    6     1      -0.3191001660E-02       7    6    1        -0.1774326112E+00      0.1915704572E+00
          0                 5           2             7    6     1      -0.5636902876E-03       7    6    1        -0.3131710829E-01      0.4470987593E-01
          0                 6           2             8    3     1       0.1115282054E-03       7    6    1        -0.5534414676E-02      0.1536550880E-01
          0                 7           1             8    3     1       0.5005089378E-04       8    3    1         0.1301443521E-02      0.6490459238E-02
          0                 8           1             8    3     1       0.2246128615E-04       4   13    1        -0.9649183839E-03      0.3294761147E-02
          0                 9           1             4   13     1      -0.1319212154E-04       4   13    1        -0.7721200127E-03      0.1829697631E-02
          0                10           1             8    3     1       0.4523421541E-05       8    3    1         0.1176227344E-03      0.6035714525E-03

    ------------------------------------------------
       NWT REQUIRED           10 OUTER ITERATIONS 
       AND A TOTAL OF         16 INNER ITERATIONS.
    ------------------------------------------------

 NO OUTPUT CONTROL FOR STRESS PERIOD    8   TIME STEP   16
 
 SOLVING FOR HEAD 
                                                   Max.-Head-Change                         Max.-Flux-Residual
  Residual-Control   Outer-Iter.   Inner-Iter.     Column Row Layer    Maximum-Head-Change  Column Row Layer    Maximum-Flux-Residual          L2-NORM 
          0                 1           2             7    6     1      -0.2843957489E+00       7    6    1        -0.1551901427E+02      0.1575724846E+02
     PET DIFF ERROR     6    7   -0.3289600522E-07    0.7999999774E-07
     PET DIFF ERROR     6    8   -0.3289600523E-07    0.7999999774E-07
          0                 2           2             7    6     1       0.3111977988E+00       7    6    1         0.1715295532E+02      0.1715939406E+02
          0                 3           2             7    6     1      -0.2555499084E+00       7    6    1        -0.1419387364E+02      0.1419513805E+02
     PET DIFF ERROR     6    7   -0.8777137753E-08    0.7999999774E-07
     PET DIFF ERROR     6    8   -0.8777137754E-08    0.7999999774E-07
          0                 4           2             7    6     1       0.2460317019E+00       7    6    1         0.1381199821E+02      0.1381237081E+02
          0                 5           2             7    6     1      -0.2345236089E+00       7    6    1        -0.1326493707E+02      0.1326511829E+02
     PET DIFF ERROR     6    7   -0.1143472021E-07    0.7999999774E-07
     PET DIFF ERROR     6    8   -0.1143472021E-07    0.7999999774E-07
          0                 6           2             7    6     1       0.2298852706E+00       7    6    1         0.1312131870E+02      0.1312152693E+02
          0                 7           2             7    6     1      -0.2150338093E+00       7    6    1        -0.1238597869E+02      0.1238614079E+02
          0                 8           2             7    6     1       0.2104196011E+00       7    6    1         0.1223042372E+02      0.1223056234E+02
          0                 9           2             7    6     1      -0.2166517822E-02       7    6    1        -0.1284247533E+00      0.1406287610E+00
          0                10           2             7    6     1      -0.4723732700E-03       7    6    1        -0.2796975415E-01      0.3013332636E-01
                                                   Max.-Head-Change                         Max.-Flux-Residual
  Residual-Control   Outer-Iter.   Inner-Iter.     Column Row Layer    Maximum-Head-Change  Column Row Layer    Maximum-Flux-Residual          L2-NORM 
          0                11           2             7    6     1      -0.1031194062E-03       7    6    1        -0.6099344335E-02      0.6481876383E-02
          0                12           1             7    6     1      -0.2253725771E-04       7    6    1        -0.1331697331E-02      0.1401874809E-02
          0                13           1             7    6     1      -0.4931062979E-05       7    6    1        -0.2910913088E-03      0.3069928913E-03

    ------------------------------------------------
       NWT REQUIRED           13 OUTER ITERATIONS 
       AND A TOTAL OF         24 INNER ITERATIONS.
    ------------------------------------------------

 NO OUTPUT CONTROL FOR STRESS PERIOD    8   TIME STEP   17
 
 SOLVING FOR HEAD 
                                                   Max.-Head-Change                         Max.-Flux-Residual
  Residual-Control   Outer-Iter.   Inner-Iter.     Column Row Layer    Maximum-Head-Change  Column Row Layer    Maximum-Flux-Residual          L2-NORM 
          0                 1           2             7    6     1      -0.2165736600E+00       7    6    1        -0.1182075088E+02      0.1210716464E+02
     PET DIFF ERROR     6    7   -0.3353812619E-07    0.7999999774E-07
     PET DIFF ERROR     6    8   -0.3353812619E-07    0.7999999774E-07
          0                 2           2             7    6     1       0.2376846099E+00       7    6    1         0.1307922798E+02      0.1308752189E+02
          0                 3           2             7    6     1      -0.2491712473E+00       7    6    1        -0.1383938403E+02      0.1384060109E+02
     PET DIFF ERROR     6    7   -0.1135801891E-07    0.7999999774E-07
     PET DIFF ERROR     6    8   -0.1135801891E-07    0.7999999774E-07
          0                 4           2             7    6     1       0.2452989818E+00       7    6    1         0.1377086869E+02      0.1377125442E+02
          0                 5           2             7    6     1      -0.2298368263E+00       7    6    1        -0.1299987999E+02      0.1300006335E+02
     PET DIFF ERROR     6    7   -0.6792261437E-08    0.7999999774E-07
     PET DIFF ERROR     6    8   -0.6792261437E-08    0.7999999774E-07
          0                 6           2             7    6     1       0.2250105201E+00       7    6    1         0.1284309064E+02      0.1284327216E+02
          0                 7           2             7    6     1      -0.2154210475E+00       7    6    1        -0.1240825843E+02      0.1240841353E+02
          0                 8           2             7    6     1       0.2110627174E+00       7    6    1         0.1226781751E+02      0.1226795756E+02
          0                 9           2             7    6     1      -0.2181381718E-02       7    6    1        -0.1292997406E+00      0.1414816441E+00
          0                10           2             7    6     1      -0.4756400327E-03       7    6    1        -0.2816190218E-01      0.3032006844E-01
                                                   Max.-Head-Change                         Max.-Flux-Residual
  Residual-Control   Outer-Iter.   Inner-Iter.     Column Row Layer    Maximum-Head-Change  Column Row Layer    Maximum-Flux-Residual          L2-NORM 
          0                11           2             7    6     1      -0.1038379921E-03       7    6    1        -0.6141578738E-02      0.6522827448E-02
          0                12           1             7    6     1      -0.2269545322E-04       7    6    1        -0.1340988488E-02      0.1410843312E-02
          0                13           1             7    6     1      -0.4965916246E-05       7    6    1        -0.2931369211E-03      0.3089330207E-03

    ------------------------------------------------
       NWT REQUIRED           13 OUTER ITERATIONS 
       AND A TOTAL OF         24 INNER ITERATIONS.
    ------------------------------------------------

 NO OUTPUT CONTROL FOR STRESS PERIOD    8   TIME STEP   18
 
 SOLVING FOR HEAD 
                                                   Max.-Head-Change                         Max.-Flux-Residual
  Residual-Control   Outer-Iter.   Inner-Iter.     Column Row Layer    Maximum-Head-Change  Column Row Layer    Maximum-Flux-Residual          L2-NORM 
          0                 1           2             7    6     1      -0.2171782826E+00       7    6    1        -0.1185373654E+02      0.1211787390E+02
          0                 2           2             7    6     1       0.2383466165E+00       7    6    1         0.1311566959E+02      0.1312385214E+02
          0                 3           2             7    6     1      -0.2422393378E+00       7    6    1        -0.1345444211E+02      0.1345569196E+02
     PET DIFF ERROR     6    7   -0.1231110536E-07    0.7999999774E-07
     PET DIFF ERROR     6    8   -0.1231110536E-07    0.7999999774E-07
          0                 4           2             7    6     1       0.2382146168E+00       7    6    1         0.1335142480E+02      0.1335181690E+02
          0                 5           2             7    6     1      -0.2217471933E+00       7    6    1        -0.1254255834E+02      0.1254277669E+02
          0                 6           2             7    6     1       0.2166120827E+00       7    6    1         0.1236370473E+02      0.1236386125E+02
          0                 7           2             7    6     1      -0.5356720530E-02       7    6    1        -0.3099311432E+00      0.3156948397E+00
          0                 8           2             7    6     1      -0.1099518177E-02       7    6    1        -0.6355750026E-01      0.6437439761E-01
          0                 9           2             7    6     1      -0.2259327420E-03       7    6    1        -0.1304868300E-01      0.1320287506E-01
          0                10           1             7    6     1      -0.4647273717E-04       7    6    1        -0.2681840797E-02      0.2752456383E-02
          0                11           1             7    6     1      -0.9568159037E-05       7    6    1        -0.5517401016E-03      0.6097583956E-03

    ------------------------------------------------
       NWT REQUIRED           11 OUTER ITERATIONS 
       AND A TOTAL OF         20 INNER ITERATIONS.
    ------------------------------------------------

 NO OUTPUT CONTROL FOR STRESS PERIOD    8   TIME STEP   19
 
 SOLVING FOR HEAD 
                                                   Max.-Head-Change                         Max.-Flux-Residual
  Residual-Control   Outer-Iter.   Inner-Iter.     Column Row Layer    Maximum-Head-Change  Column Row Layer    Maximum-Flux-Residual          L2-NORM 
          0                 1           2             7    6     1      -0.2156726979E+00       7    6    1        -0.1177165406E+02      0.1201891838E+02
          0                 2           2             7    6     1       0.2367088109E+00       7    6    1         0.1302554128E+02      0.1303369113E+02
          0                 3           2             7    6     1      -0.2420296463E+00       7    6    1        -0.1344279616E+02      0.1344404110E+02
     PET DIFF ERROR     6    7   -0.1216807854E-07    0.7999999774E-07
     PET DIFF ERROR     6    8   -0.1216807853E-07    0.7999999774E-07
          0                 4           2             7    6     1       0.2381347538E+00       7    6    1         0.1334695904E+02      0.1334735004E+02
          0                 5           2             7    6     1      -0.2218225283E+00       7    6    1        -0.1254682759E+02      0.1254704559E+02
          0                 6           2             7    6     1       0.2166967489E+00       7    6    1         0.1236854624E+02      0.1236870283E+02
          0                 7           2             7    6     1      -0.5359276390E-02       7    6    1        -0.3100791411E+00      0.3158443016E+00
          0                 8           2             7    6     1      -0.1100042320E-02       7    6    1        -0.6358782279E-01      0.6440469289E-01
          0                 9           2             7    6     1      -0.2260403481E-03       7    6    1        -0.1305490278E-01      0.1320889720E-01
          0                10           1             7    6     1      -0.4649485103E-04       7    6    1        -0.2683117970E-02      0.2753527231E-02
          0                11           1             7    6     1      -0.9572708476E-05       7    6    1        -0.5520026282E-03      0.6098340506E-03

    ------------------------------------------------
       NWT REQUIRED           11 OUTER ITERATIONS 
       AND A TOTAL OF         20 INNER ITERATIONS.
    ------------------------------------------------

 NO OUTPUT CONTROL FOR STRESS PERIOD    8   TIME STEP   20
 
 SOLVING FOR HEAD 
                                                   Max.-Head-Change                         Max.-Flux-Residual
  Residual-Control   Outer-Iter.   Inner-Iter.     Column Row Layer    Maximum-Head-Change  Column Row Layer    Maximum-Flux-Residual          L2-NORM 
          0                 1           2             7    6     1      -0.2157530245E+00       7    6    1        -0.1177605017E+02      0.1200727419E+02
          0                 2           2             7    6     1       0.2367993016E+00       7    6    1         0.1303052958E+02      0.1303859847E+02
          0                 3           2             7    6     1      -0.2419365440E+00       7    6    1        -0.1343763662E+02      0.1343887893E+02
     PET DIFF ERROR     6    7   -0.1206410973E-07    0.7999999774E-07
     PET DIFF ERROR     6    8   -0.1206410973E-07    0.7999999774E-07
          0                 4           2             7    6     1       0.2380271394E+00       7    6    1         0.1334093703E+02      0.1334132705E+02
          0                 5           2             7    6     1      -0.2218470312E+00       7    6    1        -0.1254822199E+02      0.1254843969E+02
          0                 6           2             7    6     1       0.2167299142E+00       7    6    1         0.1237044822E+02      0.1237060483E+02
          0                 7           2             7    6     1      -0.5359884890E-02       7    6    1        -0.3101146566E+00      0.3158807304E+00
          0                 8           2             7    6     1      -0.1100165914E-02       7    6    1        -0.6359502843E-01      0.6441185941E-01
          0                 9           2             7    6     1      -0.2260654845E-03       7    6    1        -0.1305636673E-01      0.1321019274E-01
          0                10           1             7    6     1      -0.4649996996E-04       7    6    1        -0.2683415802E-02      0.2753646277E-02
          0                11           1             7    6     1      -0.9573752116E-05       7    6    1        -0.5520632903E-03      0.6097309305E-03

    ------------------------------------------------
       NWT REQUIRED           11 OUTER ITERATIONS 
       AND A TOTAL OF         20 INNER ITERATIONS.
    ------------------------------------------------

 NO OUTPUT CONTROL FOR STRESS PERIOD    8   TIME STEP   21
 
 SOLVING FOR HEAD 
                                                   Max.-Head-Change                         Max.-Flux-Residual
  Residual-Control   Outer-Iter.   Inner-Iter.     Column Row Layer    Maximum-Head-Change  Column Row Layer    Maximum-Flux-Residual          L2-NORM 
          0                 1           2             7    6     1      -0.2157820249E+00       7    6    1        -0.1177764740E+02      0.1199525550E+02
          0                 2           2             7    6     1       0.2368339522E+00       7    6    1         0.1303244475E+02      0.1304044553E+02
          0                 3           2             7    6     1      -0.2418395071E+00       7    6    1        -0.1343225819E+02      0.1343349781E+02
     PET DIFF ERROR     6    7   -0.1197440845E-07    0.7999999774E-07
     PET DIFF ERROR     6    8   -0.1197440845E-07    0.7999999774E-07
          0                 4           2             7    6     1       0.2379202421E+00       7    6    1         0.1333495523E+02      0.1333534437E+02
          0                 5           2             7    6     1      -0.2218536243E+00       7    6    1        -0.1254860349E+02      0.1254882092E+02
          0                 6           2             7    6     1       0.2167442093E+00       7    6    1         0.1237127313E+02      0.1237142975E+02
          0                 7           2             7    6     1      -0.5359745513E-02       7    6    1        -0.3101069782E+00      0.3158737951E+00
          0                 8           2             7    6     1      -0.1100135662E-02       7    6    1        -0.6359335583E-01      0.6441014979E-01
          0                 9           2             7    6     1      -0.2260589446E-03       7    6    1        -0.1305600403E-01      0.1320967506E-01
          0                10           1             7    6     1      -0.4649856046E-04       7    6    1        -0.2683337430E-02      0.2753401440E-02
          0                11           1             7    6     1      -0.9573449349E-05       7    6    1        -0.5520464160E-03      0.6095613280E-03

    ------------------------------------------------
       NWT REQUIRED           11 OUTER ITERATIONS 
       AND A TOTAL OF         20 INNER ITERATIONS.
    ------------------------------------------------

 NO OUTPUT CONTROL FOR STRESS PERIOD    8   TIME STEP   22
 
 SOLVING FOR HEAD 
                                                   Max.-Head-Change                         Max.-Flux-Residual
  Residual-Control   Outer-Iter.   Inner-Iter.     Column Row Layer    Maximum-Head-Change  Column Row Layer    Maximum-Flux-Residual          L2-NORM 
          0                 1           2             7    6     1      -0.2157925811E+00       7    6    1        -0.1177823872E+02      0.1198427465E+02
          0                 2           2             7    6     1       0.2368483545E+00       7    6    1         0.1303324558E+02      0.1304118970E+02
          0                 3           2             7    6     1      -0.2417413018E+00       7    6    1        -0.1342681473E+02      0.1342805171E+02
     PET DIFF ERROR     6    7   -0.1189004333E-07    0.7999999774E-07
     PET DIFF ERROR     6    8   -0.1189004333E-07    0.7999999774E-07
          0                 4           2             7    6     1       0.2378138811E+00       7    6    1         0.1332900350E+02      0.1332939180E+02
          0                 5           2             7    6     1      -0.2218536189E+00       7    6    1        -0.1254861183E+02      0.1254882900E+02
          0                 6           2             7    6     1       0.2167515332E+00       7    6    1         0.1237170016E+02      0.1237185678E+02
          0                 7           2             7    6     1      -0.5359371501E-02       7    6    1        -0.3100857418E+00      0.3158531988E+00
          0                 8           2             7    6     1      -0.1100057170E-02       7    6    1        -0.6358889816E-01      0.6440565093E-01
          0                 9           2             7    6     1      -0.2260424761E-03       7    6    1        -0.1305506862E-01      0.1320859083E-01
          0                10           1             7    6     1      -0.4649510655E-04       7    6    1        -0.2683141205E-02      0.2753045463E-02
          0                11           1             7    6     1      -0.9572724698E-05       7    6    1        -0.5520052555E-03      0.6093732969E-03

    ------------------------------------------------
       NWT REQUIRED           11 OUTER ITERATIONS 
       AND A TOTAL OF         20 INNER ITERATIONS.
    ------------------------------------------------

 NO OUTPUT CONTROL FOR STRESS PERIOD    8   TIME STEP   23
 
 SOLVING FOR HEAD 
                                                   Max.-Head-Change                         Max.-Flux-Residual
  Residual-Control   Outer-Iter.   Inner-Iter.     Column Row Layer    Maximum-Head-Change  Column Row Layer    Maximum-Flux-Residual          L2-NORM 
          0                 1           2             7    6     1      -0.2157961300E+00       7    6    1        -0.1177844796E+02      0.1197461222E+02
          0                 2           2             7    6     1       0.2368552181E+00       7    6    1         0.1303363152E+02      0.1304152898E+02
          0                 3           2             7    6     1      -0.2416428535E+00       7    6    1        -0.1342135772E+02      0.1342259212E+02
     PET DIFF ERROR     6    7   -0.1180765072E-07    0.7999999774E-07
     PET DIFF ERROR     6    8   -0.1180765072E-07    0.7999999774E-07
          0                 4           2             7    6     1       0.2377079254E+00       7    6    1         0.1332307449E+02      0.1332346196E+02
          0                 5           2             7    6     1      -0.2218512515E+00       7    6    1        -0.1254848658E+02      0.1254870349E+02
          0                 6           2             7    6     1       0.2167563470E+00       7    6    1         0.1237198392E+02      0.1237214054E+02
          0                 7           2             7    6     1      -0.5358878631E-02       7    6    1        -0.3100576440E+00      0.3158257422E+00
          0                 8           2             7    6     1      -0.1099954215E-02       7    6    1        -0.6358302935E-01      0.6439974779E-01
          0                 9           2             7    6     1      -0.2260209682E-03       7    6    1        -0.1305384269E-01      0.1320722117E-01
          0                10           1             7    6     1      -0.4649061269E-04       7    6    1        -0.2682885088E-02      0.2752633884E-02
          0                11           1             7    6     1      -0.9571785611E-05       7    6    1        -0.5519517465E-03      0.6092409609E-03

    ------------------------------------------------
       NWT REQUIRED           11 OUTER ITERATIONS 
       AND A TOTAL OF         20 INNER ITERATIONS.
    ------------------------------------------------

 NO OUTPUT CONTROL FOR STRESS PERIOD    8   TIME STEP   24
 
 SOLVING FOR HEAD 
                                                   Max.-Head-Change                         Max.-Flux-Residual
  Residual-Control   Outer-Iter.   Inner-Iter.     Column Row Layer    Maximum-Head-Change  Column Row Layer    Maximum-Flux-Residual          L2-NORM 
          0                 1           2             7    6     1      -0.2157973767E+00       7    6    1        -0.1177853156E+02      0.1196623853E+02
          0                 2           2             7    6     1       0.2368594268E+00       7    6    1         0.1303387138E+02      0.1304173116E+02
          0                 3           2             7    6     1      -0.2415445685E+00       7    6    1        -0.1341590976E+02      0.1341714168E+02
     PET DIFF ERROR     6    7   -0.1172604731E-07    0.7999999774E-07
     PET DIFF ERROR     6    8   -0.1172604731E-07    0.7999999774E-07
          0                 4           2             7    6     1       0.2376023787E+00       7    6    1         0.1331716840E+02      0.1331755503E+02
          0                 5           2             7    6     1      -0.2218480457E+00       7    6    1        -0.1254831393E+02      0.1254853058E+02
          0                 6           2             7    6     1       0.2167602515E+00       7    6    1         0.1237221578E+02      0.1237237240E+02
          0                 7           2             7    6     1      -0.5358383983E-02       7    6    1        -0.3100294382E+00      0.3157981366E+00
          0                 8           2             7    6     1      -0.1099850917E-02       7    6    1        -0.6357713975E-01      0.6439381992E-01
          0                 9           2             7    6     1      -0.2259993937E-03       7    6    1        -0.1305261276E-01      0.1320584934E-01
          0                10           1             7    6     1      -0.4648610640E-04       7    6    1        -0.2682628217E-02      0.2752224283E-02
          0                11           1             7    6     1      -0.9570844274E-05       7    6    1        -0.5518980936E-03      0.6089830428E-03

    ------------------------------------------------
       NWT REQUIRED           11 OUTER ITERATIONS 
       AND A TOTAL OF         20 INNER ITERATIONS.
    ------------------------------------------------

 NO OUTPUT CONTROL FOR STRESS PERIOD    8   TIME STEP   25
 
 SOLVING FOR HEAD 
                                                   Max.-Head-Change                         Max.-Flux-Residual
  Residual-Control   Outer-Iter.   Inner-Iter.     Column Row Layer    Maximum-Head-Change  Column Row Layer    Maximum-Flux-Residual          L2-NORM 
          0                 1           2             7    6     1      -0.2157975972E+00       7    6    1        -0.1177855920E+02      0.1195898826E+02
          0                 2           2             7    6     1       0.2368626155E+00       7    6    1         0.1303405511E+02      0.1304188512E+02
          0                 3           2             7    6     1      -0.2414464831E+00       7    6    1        -0.1341047287E+02      0.1341170242E+02
     PET DIFF ERROR     6    7   -0.1164488898E-07    0.7999999774E-07
     PET DIFF ERROR     6    8   -0.1164488898E-07    0.7999999774E-07
          0                 4           2             7    6     1       0.2374971356E+00       7    6    1         0.1331127932E+02      0.1331166511E+02
          0                 5           2             7    6     1      -0.2218443441E+00       7    6    1        -0.1254811325E+02      0.1254832965E+02
          0                 6           2             7    6     1       0.2167636142E+00       7    6    1         0.1237241672E+02      0.1237257334E+02
          0                 7           2             7    6     1      -0.5357846148E-02       7    6    1        -0.3099987416E+00      0.3157680619E+00
          0                 8           2             7    6     1      -0.1099738718E-02       7    6    1        -0.6357073723E-01      0.6438738668E-01
          0                 9           2             7    6     1      -0.2259759839E-03       7    6    1        -0.1305127711E-01      0.1320437603E-01
          0                10           1             7    6     1      -0.4648122096E-04       7    6    1        -0.2682349527E-02      0.2751795960E-02
          0                11           1             7    6     1      -0.9569824788E-05       7    6    1        -0.5518399391E-03      0.6087858494E-03

    ------------------------------------------------
       NWT REQUIRED           11 OUTER ITERATIONS 
       AND A TOTAL OF         20 INNER ITERATIONS.
    ------------------------------------------------

 NO OUTPUT CONTROL FOR STRESS PERIOD    8   TIME STEP   26
 
 SOLVING FOR HEAD 
                                                   Max.-Head-Change                         Max.-Flux-Residual
  Residual-Control   Outer-Iter.   Inner-Iter.     Column Row Layer    Maximum-Head-Change  Column Row Layer    Maximum-Flux-Residual          L2-NORM 
          0                 1           2             7    6     1      -0.2157973392E+00       7    6    1        -0.1177856057E+02      0.1195268483E+02
          0                 2           2             7    6     1       0.2368652533E+00       7    6    1         0.1303420855E+02      0.1304201541E+02
          0                 3           2             7    6     1      -0.2413486766E+00       7    6    1        -0.1340505146E+02      0.1340627873E+02
     PET DIFF ERROR     6    7   -0.1156405928E-07    0.7999999774E-07
     PET DIFF ERROR     6    8   -0.1156405928E-07    0.7999999774E-07
          0                 4           2             7    6     1       0.2373922394E+00       7    6    1         0.1330540968E+02      0.1330579463E+02
          0                 5           2             7    6     1      -0.2218403474E+00       7    6    1        -0.1254789587E+02      0.1254811202E+02
          0                 6           2             7    6     1       0.2167666428E+00       7    6    1         0.1237259860E+02      0.1237275522E+02
          0                 7           2             7    6     1      -0.5357302209E-02       7    6    1        -0.3099676915E+00      0.3157376263E+00
          0                 8           2             7    6     1      -0.1099625269E-02       7    6    1        -0.6356426232E-01      0.6438088217E-01
          0                 9           2             7    6     1      -0.2259523170E-03       7    6    1        -0.1304992662E-01      0.1320289020E-01
          0                10           1             7    6     1      -0.4647628332E-04       7    6    1        -0.2682067801E-02      0.2751367130E-02
          0                11           1             7    6     1      -0.9568794291E-05       7    6    1        -0.5517811451E-03      0.6085913182E-03

    ------------------------------------------------
       NWT REQUIRED           11 OUTER ITERATIONS 
       AND A TOTAL OF         20 INNER ITERATIONS.
    ------------------------------------------------

 NO OUTPUT CONTROL FOR STRESS PERIOD    8   TIME STEP   27
 
 SOLVING FOR HEAD 
                                                   Max.-Head-Change                         Max.-Flux-Residual
  Residual-Control   Outer-Iter.   Inner-Iter.     Column Row Layer    Maximum-Head-Change  Column Row Layer    Maximum-Flux-Residual          L2-NORM 
          0                 1           2             7    6     1      -0.2157967768E+00       7    6    1        -0.1177854536E+02      0.1194718260E+02
          0                 2           2             7    6     1       0.2368675316E+00       7    6    1         0.1303434221E+02      0.1304213153E+02
          0                 3           2             7    6     1      -0.2412511442E+00       7    6    1        -0.1339964526E+02      0.1340087037E+02
     PET DIFF ERROR     6    7   -0.1148351239E-07    0.7999999774E-07
     PET DIFF ERROR     6    8   -0.1148351239E-07    0.7999999774E-07
          0                 4           2             7    6     1       0.2372876683E+00       7    6    1         0.1329955826E+02      0.1329994236E+02
          0                 5           2             7    6     1      -0.2218360875E+00       7    6    1        -0.1254766362E+02      0.1254787954E+02
          0                 6           2             7    6     1       0.2167693724E+00       7    6    1         0.1237276341E+02      0.1237292003E+02
          0                 7           2             7    6     1      -0.5356753053E-02       7    6    1        -0.3099363392E+00      0.3157068821E+00
          0                 8           2             7    6     1      -0.1099510750E-02       7    6    1        -0.6355772554E-01      0.6437431725E-01
          0                 9           2             7    6     1      -0.2259284310E-03       7    6    1        -0.1304856345E-01      0.1320139451E-01
          0                10           1             7    6     1      -0.4647130008E-04       7    6    1        -0.2681783469E-02      0.2750939856E-02
          0                11           1             7    6     1      -0.9567754676E-05       7    6    1        -0.5517218342E-03      0.6083986076E-03

    ------------------------------------------------
       NWT REQUIRED           11 OUTER ITERATIONS 
       AND A TOTAL OF         20 INNER ITERATIONS.
    ------------------------------------------------

 NO OUTPUT CONTROL FOR STRESS PERIOD    8   TIME STEP   28
 
 SOLVING FOR HEAD 
                                                   Max.-Head-Change                         Max.-Flux-Residual
  Residual-Control   Outer-Iter.   Inner-Iter.     Column Row Layer    Maximum-Head-Change  Column Row Layer    Maximum-Flux-Residual          L2-NORM 
          0                 1           2             7    6     1      -0.2157960638E+00       7    6    1        -0.1177852182E+02      0.1194235555E+02
          0                 2           2             7    6     1       0.2368694997E+00       7    6    1         0.1303445883E+02      0.1304223516E+02
          0                 3           2             7    6     1      -0.2411539172E+00       7    6    1        -0.1339425602E+02      0.1339547906E+02
     PET DIFF ERROR     6    7   -0.1140320745E-07    0.7999999774E-07
     PET DIFF ERROR     6    8   -0.1140320745E-07    0.7999999774E-07
          0                 4           2             7    6     1       0.2371834513E+00       7    6    1         0.1329372669E+02      0.1329410994E+02
          0                 5           2             7    6     1      -0.2218316609E+00       7    6    1        -0.1254742196E+02      0.1254763761E+02
          0                 6           2             7    6     1       0.2167719025E+00       7    6    1         0.1237291685E+02      0.1237307347E+02
          0                 7           2             7    6     1      -0.5356229503E-02       7    6    1        -0.3099064606E+00      0.3156775764E+00
          0                 8           2             7    6     1      -0.1099401522E-02       7    6    1        -0.6355149305E-01      0.6436805160E-01
          0                 9           2             7    6     1      -0.2259056388E-03       7    6    1        -0.1304726316E-01      0.1319996130E-01
          0                10           1             7    6     1      -0.4646654324E-04       7    6    1        -0.2681512143E-02      0.2750523543E-02
          0                11           1             7    6     1      -0.9566761833E-05       7    6    1        -0.5516652100E-03      0.6082096795E-03

    ------------------------------------------------
       NWT REQUIRED           11 OUTER ITERATIONS 
       AND A TOTAL OF         20 INNER ITERATIONS.
    ------------------------------------------------

 NO OUTPUT CONTROL FOR STRESS PERIOD    8   TIME STEP   29
 
 SOLVING FOR HEAD 
                                                   Max.-Head-Change                         Max.-Flux-Residual
  Residual-Control   Outer-Iter.   Inner-Iter.     Column Row Layer    Maximum-Head-Change  Column Row Layer    Maximum-Flux-Residual          L2-NORM 
          0                 1           2             7    6     1      -0.2157950240E+00       7    6    1        -0.1177848049E+02      0.1194425912E+02
          0                 2           2             7    6     1       0.2368712103E+00       7    6    1         0.1303456128E+02      0.1304215245E+02
          0                 3           2             7    6     1      -0.2410569759E+00       7    6    1        -0.1338888264E+02      0.1339010092E+02
     PET DIFF ERROR     6    7   -0.1132311400E-07    0.7999999774E-07
     PET DIFF ERROR     6    8   -0.1132311400E-07    0.7999999774E-07
          0                 4           2             7    6     1       0.2370795627E+00       7    6    1         0.1328791352E+02      0.1328829529E+02
          0                 5           2             7    6     1      -0.2218270266E+00       7    6    1        -0.1254716854E+02      0.1254738395E+02
          0                 6           2             7    6     1       0.2167741916E+00       7    6    1         0.1237305653E+02      0.1237321315E+02
          0                 7           2             7    6     1      -0.5355674255E-02       7    6    1        -0.3098747548E+00      0.3156464574E+00
          0                 8           2             7    6     1      -0.1099285758E-02       7    6    1        -0.6354488405E-01      0.6436140608E-01
          0                 9           2             7    6     1      -0.2258814970E-03       7    6    1        -0.1304588519E-01      0.1319844430E-01
          0                10           1             7    6     1      -0.4646150790E-04       7    6    1        -0.2681224781E-02      0.2750086123E-02
          0                11           1             7    6     1      -0.9565711443E-05       7    6    1        -0.5516052690E-03      0.6080114716E-03

    ------------------------------------------------
       NWT REQUIRED           11 OUTER ITERATIONS 
       AND A TOTAL OF         20 INNER ITERATIONS.
    ------------------------------------------------

 NO OUTPUT CONTROL FOR STRESS PERIOD    8   TIME STEP   30



 STREAM LISTING     PERIOD      8   STEP       30

 LAYER ROW COL. STREAM  RCH.  FLOW INTO     FLOW TO   FLOW OUT OF   OVRLND.     DIRECT     STREAM       STREAM     STREAM     STREAM   STREAMBED  STREAMBED
                SEG.NO.  NO.  STRM. RCH.    AQUIFER    STRM. RCH.    RUNOFF     PRECIP       ET          HEAD       DEPTH      WIDTH   CONDCTNC.   GRADIENT

   1    1    1     1     1    3.1164E+01  2.7180E-01   3.0893E+01  0.000E+00  0.000E+00  0.000E+00  1.09431E+03  1.259E+00  1.418E+01  6.381E-02  1.420E+00
   1    2    2     1     2    3.0893E+01  4.2069E-01   3.0472E+01  0.000E+00  0.000E+00  0.000E+00  1.08931E+03  1.256E+00  1.412E+01  9.884E-02  1.419E+00
   1    3    3     1     3    3.0472E+01  3.5855E-01   3.0113E+01  0.000E+00  0.000E+00  0.000E+00  1.08367E+03  1.253E+00  1.405E+01  8.431E-02  1.418E+00
   1    3    4     1     4    3.0113E+01  3.2996E-01   2.9783E+01  0.000E+00  0.000E+00  0.000E+00  1.07866E+03  1.249E+00  1.399E+01  7.765E-02  1.416E+00
   1    4    5     2     1    2.7783E+01  0.0000E+00   2.7783E+01  0.000E+00  0.000E+00  0.000E+00  1.07322E+03  1.287E+00  1.200E+01  0.000E+00  1.429E+00
   1    5    6     2     2    2.7783E+01  0.0000E+00   2.7783E+01  0.000E+00  0.000E+00  0.000E+00  1.06780E+03  1.287E+00  1.200E+01  0.000E+00  1.429E+00
   1    6    6     2     3    2.7783E+01  0.0000E+00   2.7783E+01  0.000E+00  0.000E+00  0.000E+00  1.06308E+03  1.287E+00  1.200E+01  0.000E+00  1.429E+00
   1    7    6     2     4    2.7783E+01  0.0000E+00   2.7783E+01  0.000E+00  0.000E+00  0.000E+00  1.05836E+03  1.287E+00  1.200E+01  0.000E+00  1.429E+00
   1    8    6     2     5    2.7783E+01  0.0000E+00   2.7783E+01  0.000E+00  0.000E+00  0.000E+00  1.05365E+03  1.287E+00  1.200E+01  0.000E+00  1.429E+00
   1    3    5     3     1    2.0000E+00  2.8252E-01   1.7175E+00  0.000E+00  0.000E+00  0.000E+00  1.07555E+03  1.909E+00  9.636E+00  7.227E-02  1.955E+00
   1    3    6     3     2    1.7175E+00  2.4905E-01   1.4684E+00  0.000E+00  0.000E+00  0.000E+00  1.07264E+03  1.727E+00  8.909E+00  6.682E-02  1.864E+00
   1    3    7     3     3    1.4684E+00  1.9718E-01   1.2712E+00  0.000E+00  0.000E+00  0.000E+00  1.06987E+03  1.555E+00  8.218E+00  5.547E-02  1.777E+00
   1    4    8     3     4    1.2712E+00  2.2567E-01   1.0456E+00  0.000E+00  0.000E+00  0.000E+00  1.06682E+03  1.364E+00  7.455E+00  6.709E-02  1.682E+00
   1    5    8     3     5    1.0456E+00  1.5790E-01   8.8768E-01  0.000E+00  0.000E+00  0.000E+00  1.06362E+03  1.164E+00  6.655E+00  4.991E-02  1.582E+00
   1    6    8     3     6    8.8768E-01  5.5980E-02   8.3170E-01  0.000E+00  0.000E+00  0.000E+00  1.06158E+03  1.036E+00  6.145E+00  1.844E-02  1.518E+00
   1    5   10     4     1    1.0000E+01  0.0000E+00   1.0000E+01  0.000E+00  0.000E+00  0.000E+00  1.07837E+03  6.385E-01  1.000E+01  0.000E+00  1.213E+00
   1    5    9     4     2    1.0000E+01  0.0000E+00   1.0000E+01  0.000E+00  0.000E+00  0.000E+00  1.07155E+03  6.385E-01  1.000E+01  0.000E+00  1.213E+00
   1    6    8     4     3    1.0000E+01  0.0000E+00   1.0000E+01  0.000E+00  0.000E+00  0.000E+00  1.06382E+03  6.385E-01  1.000E+01  0.000E+00  1.213E+00
   1    6    8     5     1    1.0832E+01  2.3262E-01   1.0599E+01  0.000E+00  0.000E+00  0.000E+00  1.05869E+03  6.881E-01  1.577E+01  6.307E-02  1.229E+00
   1    7    7     5     2    1.0599E+01  2.8607E-01   1.0313E+01  0.000E+00  0.000E+00  0.000E+00  1.05418E+03  6.822E-01  1.554E+01  7.769E-02  1.227E+00
   1    8    7     5     3    1.0313E+01  1.9716E-01   1.0116E+01  0.000E+00  0.000E+00  0.000E+00  1.04993E+03  6.766E-01  1.532E+01  5.363E-02  1.226E+00
   1    8    6     5     4    1.0116E+01  1.3929E-01   9.9766E+00  0.000E+00  0.000E+00  0.000E+00  1.04692E+03  6.727E-01  1.517E+01  3.792E-02  1.224E+00
   1    9    6     6     1    3.3766E+01  0.0000E+00   3.3766E+01  0.000E+00  0.000E+00  0.000E+00  1.04419E+03  1.462E+00  1.200E+01  0.000E+00  1.487E+00
   1   10    7     6     2    3.3766E+01  0.0000E+00   3.3766E+01  0.000E+00  0.000E+00  0.000E+00  1.03964E+03  1.462E+00  1.200E+01  0.000E+00  1.487E+00
   1   11    7     6     3    3.3766E+01  0.0000E+00   3.3766E+01  0.000E+00  0.000E+00  0.000E+00  1.03510E+03  1.462E+00  1.200E+01  0.000E+00  1.487E+00
   1   12    7     6     4    3.3766E+01  0.0000E+00   3.3766E+01  0.000E+00  0.000E+00  0.000E+00  1.03055E+03  1.462E+00  1.200E+01  0.000E+00  1.487E+00
   1   13    7     6     5    3.3766E+01  0.0000E+00   3.3766E+01  0.000E+00  0.000E+00  0.000E+00  1.02737E+03  1.462E+00  1.200E+01  0.000E+00  2.914E-01
   1   14    9     7     1    1.5000E+02  1.2800E+00   1.4872E+02  0.000E+00  0.000E+00  0.000E+00  1.03987E+03  2.288E+00  5.530E+01  5.593E-01  7.628E-01
   1   13    8     7     2    1.4872E+02  1.9335E+00   1.4679E+02  0.000E+00  0.000E+00  0.000E+00  1.03478E+03  2.279E+00  5.526E+01  6.148E-01  1.048E+00
   1   13    7     7     3    1.4679E+02  1.7822E+00   1.4500E+02  0.000E+00  0.000E+00  0.000E+00  1.02969E+03  2.269E+00  5.521E+01  5.584E-01  1.064E+00
   1   13    6     8     1    1.7877E+02  1.3980E+00   1.7737E+02  0.000E+00  0.000E+00  0.000E+00  1.02488E+03  3.004E+00  4.356E+01  4.439E-01  1.050E+00
   1   13    5     8     2    1.7737E+02  6.9884E-01   1.7667E+02  0.000E+00  0.000E+00  0.000E+00  1.01862E+03  2.997E+00  4.346E+01  4.429E-01  5.260E-01
   1   13    4     8     3    1.7667E+02 -2.4415E-01   1.7692E+02  0.000E+00  0.000E+00  0.000E+00  1.01237E+03  2.996E+00  4.344E+01  4.427E+00 -1.838E-02
   1   13    3     8     4    1.7692E+02 -1.9811E+00   1.7890E+02  0.000E+00  0.000E+00  0.000E+00  1.00613E+03  3.003E+00  4.354E+01  4.437E+00 -1.488E-01
   1   13    2     8     5    1.7890E+02 -9.8263E-01   1.7988E+02  0.000E+00  0.000E+00  0.000E+00  9.99887E+02  3.012E+00  4.368E+01  4.451E+00 -7.359E-02
   1   13    1     8     6    1.7988E+02 -6.5338E-01   1.8053E+02  0.000E+00  0.000E+00  0.000E+00  9.94892E+02  3.017E+00  4.375E+01  2.675E+00 -8.141E-02
   1    6    8     9     1    3.9938E+00  0.0000E+00   3.9938E+00  0.000E+00  0.000E+00  0.000E+00  1.07881E+03  3.107E-01  4.000E+00  0.000E+00  1.104E+00





UNSATURATED ZONE PACKAGE VOLUMETRIC BUDGET FOR  TIME STEP    30 STRESS PERIOD    8
  ------------------------------------------------------------------------------



     CUMULATIVE VOLUMES      L**3       RATES FOR THIS TIME STEP      L**3/T
     ------------------                 ------------------------

           IN:                                      IN:
           ---                                      ---
        INFILTRATION =    25012467.8426          INFILTRATION =           4.8413

          OUT:                                     OUT:
          ----                                     ----
              UZF ET =   552938661.5345                UZF ET =           4.8425
        UZF RECHARGE =   500252439.5064          UZF RECHARGE =          24.2483

            IN - OUT = -1028178633.1983              IN - OUT =         -24.2495

          STORAGE:                                 STORAGE:
          --------                                 --------
      STORAGE CHANGE = -1028170903.2264        STORAGE CHANGE =         -24.2495

 PERCENT DISCREPANCY IS DIFFERENCE BETWEEN IN-OUT MINUS CHANGE IN STORAGE
 DIVIDED BY THE AVERAGE OF IN AND OUT TIMES 100

 PERCENT DISCREPANCY =          -0.00     PERCENT DISCREPANCY =           0.00






1
  VOLUMETRIC BUDGET FOR ENTIRE MODEL AT END OF TIME STEP   30, STRESS PERIOD   8
  ------------------------------------------------------------------------------

     CUMULATIVE VOLUMES      L**3       RATES FOR THIS TIME STEP      L**3/T
     ------------------                 ------------------------

           IN:                                      IN:
           ---                                      ---
             STORAGE =    23808196.0000               STORAGE =           3.3220
       CONSTANT HEAD =           0.0000         CONSTANT HEAD =           0.0000
               WELLS =           0.0000                 WELLS =           0.0000
     HEAD DEP BOUNDS =     6024437.5000       HEAD DEP BOUNDS =           0.2820
      STREAM LEAKAGE =   222625456.0000        STREAM LEAKAGE =          10.4969
        UZF RECHARGE =   500252384.0000          UZF RECHARGE =          24.2483
               GW ET =           0.0000                 GW ET =           0.0000
     SURFACE LEAKAGE =           0.0000       SURFACE LEAKAGE =           0.0000

            TOTAL IN =   752710464.0000              TOTAL IN =          38.3492

          OUT:                                     OUT:
          ----                                     ----
             STORAGE =   533288000.0000               STORAGE =          23.3615
       CONSTANT HEAD =           0.0000         CONSTANT HEAD =           0.0000
               WELLS =           0.0000                 WELLS =           0.0000
     HEAD DEP BOUNDS =     6100541.0000       HEAD DEP BOUNDS =           0.2712
      STREAM LEAKAGE =   170810704.0000        STREAM LEAKAGE =           3.8612
        UZF RECHARGE =           0.0000          UZF RECHARGE =           0.0000
               GW ET =    42471524.0000                 GW ET =          10.8546
     SURFACE LEAKAGE =           0.0000       SURFACE LEAKAGE =           0.0000

           TOTAL OUT =   752670784.0000             TOTAL OUT =          38.3485

            IN - OUT =       39680.0000              IN - OUT =       6.9046E-04

 PERCENT DISCREPANCY =           0.01     PERCENT DISCREPANCY =           0.00






         TIME SUMMARY AT END OF TIME STEP   30 IN STRESS PERIOD    8
                    SECONDS     MINUTES      HOURS       DAYS        YEARS
                    -----------------------------------------------------------
   TIME STEP LENGTH  87600.      1460.0      24.333      1.0139     2.77588E-03
 STRESS PERIOD TIME 2.62800E+06  43800.      730.00      30.417     8.32763E-02
         TOTAL TIME 2.10240E+07 3.50400E+05  5840.0      243.33     0.66621    
1
1
                            STRESS PERIOD NO.    9, LENGTH =   2628000.    
                            -----------------------------------------------

                              NUMBER OF TIME STEPS =    30

                               MULTIPLIER FOR DELT =     1.000

                            INITIAL TIME STEP SIZE =   87600.00    

 WELL NO.  LAYER   ROW   COL   STRESS RATE         
 --------------------------------------------------
      1      1      6      4       0.000    
      2      1      6      7       0.000    
      3      1      7      4       0.000    
      4      1      7      5       0.000    
      5      1      8      4       0.000    
      6      1      8      5       0.000    
      7      1      9      4       0.000    
      8      1      9      5       0.000    
      9      1     10      4       0.000    
     10      1     10      5       0.000    

     10 WELLS

 REUSING NON-PARAMETER GHB CELLS FROM LAST STRESS PERIOD

      2 GHB CELLS

 REUSING STREAM SEGMENT DATA FROM LAST STRESS PERIOD



            AREAL INFILTRATION RATE
 READING ON UNIT   19 WITH FORMAT: (10F4.0)            

            1           2           3           4           5           6           7           8           9          10
 ........................................................................................................................
   1   1.0000E-10  2.0000E-10   0.000       0.000       0.000       0.000       0.000       0.000       0.000       0.000    
   2   2.0000E-10  1.0000E-10  2.0000E-10   0.000       0.000      8.0000E-10  8.0000E-10  5.0000E-10   0.000       0.000    
   3    0.000      5.0000E-10  1.0000E-10  1.0000E-10  8.0000E-10  8.0000E-10  5.0000E-10  5.0000E-10   0.000       0.000    
   4   8.0000E-10  5.0000E-10  1.0000E-10  1.0000E-10  1.0000E-10  1.0000E-10  1.0000E-10  1.0000E-10  2.0000E-10   0.000    
   5   8.0000E-10  5.0000E-10  1.0000E-10  1.0000E-10  1.0000E-10  1.0000E-10  1.0000E-10  1.0000E-10  1.0000E-10  1.0000E-10
   6   8.0000E-10  5.0000E-10  5.0000E-10  2.0000E-10  2.0000E-10  1.0000E-10  1.0000E-10  1.0000E-10  1.0000E-10  5.0000E-10
   7   8.0000E-10  5.0000E-10  5.0000E-10  2.0000E-10  2.0000E-10  1.0000E-10  1.0000E-10  2.0000E-10  2.0000E-10   0.000    
   8    0.000      5.0000E-10  5.0000E-10  2.0000E-10  2.0000E-10  1.0000E-10  1.0000E-10  2.0000E-10  5.0000E-10   0.000    
   9    0.000      5.0000E-10  5.0000E-10  2.0000E-10  2.0000E-10  1.0000E-10  1.0000E-10  2.0000E-10  5.0000E-10   0.000    
  10    0.000      5.0000E-10  5.0000E-10  2.0000E-10  2.0000E-10  1.0000E-10  1.0000E-10  2.0000E-10  5.0000E-10  8.0000E-10
  11    0.000      1.0000E-10  1.0000E-10  1.0000E-10  1.0000E-10  1.0000E-10  1.0000E-10  2.0000E-10  5.0000E-10   0.000    
  12   1.0000E-10  1.0000E-10  1.0000E-10  1.0000E-10  1.0000E-10  1.0000E-10  1.0000E-10  1.0000E-10  2.0000E-10   0.000    
  13   1.0000E-10  1.0000E-10  2.0000E-10  2.0000E-10  2.0000E-10  2.0000E-10  2.0000E-10  1.0000E-10  1.0000E-10   0.000    
  14    0.000      2.0000E-10  5.0000E-10  5.0000E-10  5.0000E-10  5.0000E-10  5.0000E-10  2.0000E-10  1.0000E-10   0.000    
  15    0.000       0.000      8.0000E-10  8.0000E-10  8.0000E-10  8.0000E-10   0.000       0.000       0.000       0.000    

                  ET RATE =  6.500000E-08

 USING ET EXTINCTION DEPTH FROM PREVIOUS STRESS PERIOD. CURRENT PERIOD IS:       9

 USING EXTINCTION WATER CONTENT FROM PREVIOUS STRESS PERIOD. CURRENT PERIOD IS:       9
 
 SOLVING FOR HEAD 
                                                   Max.-Head-Change                         Max.-Flux-Residual
  Residual-Control   Outer-Iter.   Inner-Iter.     Column Row Layer    Maximum-Head-Change  Column Row Layer    Maximum-Flux-Residual          L2-NORM 
          0                 1           2             7    6     1      -0.2157938027E+00       7    6    1        -0.1177842909E+02      0.1190547207E+02
          0                 2           2             7    6     1       0.2368726940E+00       7    6    1         0.1303465127E+02      0.1304165600E+02
          0                 3           2             7    6     1      -0.2723701022E+00       7    6    1        -0.1512785254E+02      0.1512892058E+02
          0                 4           2             7    6     1       0.2701980603E+00       7    6    1         0.1516886953E+02      0.1516922761E+02
          0                 5           2             7    6     1      -0.1099641230E-01       7    6    1        -0.6234839800E+00      0.6279484600E+00
          0                 6           2             7    6     1      -0.2102561106E-02       7    6    1        -0.1191082590E+00      0.1202508511E+00
          0                 7           2             7    6     1      -0.4024706923E-03       7    6    1        -0.2278108857E-01      0.2366928719E-01
          0                 8           1             7    6     1      -0.7712031421E-04       7    6    1        -0.4361952402E-02      0.5363600856E-02
          0                 9           1             7    6     1      -0.1479154915E-04       7    6    1        -0.8360323507E-03      0.1774215906E-02
          0                10           1             4   13     1      -0.1215908098E-04       4   13    1        -0.7099693430E-03      0.1332417129E-02
          0                11           1             4   13     1      -0.8283118837E-05       4   13    1        -0.4836125327E-03      0.8549650143E-03

    ------------------------------------------------
       NWT REQUIRED           11 OUTER ITERATIONS 
       AND A TOTAL OF         18 INNER ITERATIONS.
    ------------------------------------------------

 NO OUTPUT CONTROL FOR STRESS PERIOD    9   TIME STEP    1
 
 SOLVING FOR HEAD 
                                                   Max.-Head-Change                         Max.-Flux-Residual
  Residual-Control   Outer-Iter.   Inner-Iter.     Column Row Layer    Maximum-Head-Change  Column Row Layer    Maximum-Flux-Residual          L2-NORM 
          0                 1           2             7    6     1      -0.2558429951E+00       7    6    1        -0.1396231604E+02      0.1406860572E+02
     PET DIFF ERROR     6    7   -0.2108708116E-07    0.6500000094E-07
     PET DIFF ERROR     6    8   -0.2108708115E-07    0.6500000094E-07
          0                 2           2             7    6     1       0.2801247520E+00       7    6    1         0.1544016133E+02      0.1544605456E+02
          0                 3           2             7    6     1      -0.2756276896E+00       7    6    1        -0.1530883636E+02      0.1530991067E+02
     PET DIFF ERROR     6    7   -0.2111965621E-07    0.6500000094E-07
     PET DIFF ERROR     6    8   -0.2111965621E-07    0.6500000094E-07
          0                 4           2             7    6     1       0.2702596768E+00       7    6    1         0.1517235880E+02      0.1517288702E+02
          0                 5           2             7    6     1      -0.2386523926E+00       7    6    1        -0.1349875130E+02      0.1349895937E+02
          0                 6           2             7    6     1       0.2325536980E+00       7    6    1         0.1327375249E+02      0.1327392656E+02
          0                 7           2             7    6     1      -0.2276395102E+00       7    6    1        -0.1311214804E+02      0.1311230518E+02
          0                 8           2             7    6     1       0.2232947395E+00       7    6    1         0.1297891591E+02      0.1297906500E+02
          0                 9           2             7    6     1      -0.2467705211E-02       7    6    1        -0.1461724581E+00      0.1582881139E+00
          0                10           2             7    6     1      -0.5384918122E-03       7    6    1        -0.3186250813E-01      0.3398664175E-01
                                                   Max.-Head-Change                         Max.-Flux-Residual
  Residual-Control   Outer-Iter.   Inner-Iter.     Column Row Layer    Maximum-Head-Change  Column Row Layer    Maximum-Flux-Residual          L2-NORM 
          0                11           2             7    6     1      -0.1176475568E-03       7    6    1        -0.6954003601E-02      0.7324312364E-02
          0                12           1             7    6     1      -0.2573228659E-04       7    6    1        -0.1519510546E-02      0.1586019542E-02
          0                13           1             7    6     1      -0.5634287976E-05       7    6    1        -0.3323992123E-03      0.3469166231E-03

    ------------------------------------------------
       NWT REQUIRED           13 OUTER ITERATIONS 
       AND A TOTAL OF         24 INNER ITERATIONS.
    ------------------------------------------------

 NO OUTPUT CONTROL FOR STRESS PERIOD    9   TIME STEP    2
 
 SOLVING FOR HEAD 
                                                   Max.-Head-Change                         Max.-Flux-Residual
  Residual-Control   Outer-Iter.   Inner-Iter.     Column Row Layer    Maximum-Head-Change  Column Row Layer    Maximum-Flux-Residual          L2-NORM 
          0                 1           2             7    6     1      -0.2297463150E+00       7    6    1        -0.1253928664E+02      0.1265637141E+02
     PET DIFF ERROR     6    7   -0.2141590750E-07    0.6500000094E-07
     PET DIFF ERROR     6    8   -0.2141590749E-07    0.6500000094E-07
          0                 2           2             7    6     1       0.2516861207E+00       7    6    1         0.1387243409E+02      0.1387897982E+02
          0                 3           2             7    6     1      -0.2730428660E+00       7    6    1        -0.1516510727E+02      0.1516614838E+02
     PET DIFF ERROR     6    7   -0.2051347194E-07    0.6500000094E-07
     PET DIFF ERROR     6    8   -0.2051347194E-07    0.6500000094E-07
          0                 4           2             7    6     1       0.2700026790E+00       7    6    1         0.1515795592E+02      0.1515847346E+02
          0                 5           2             7    6     1      -0.2391562247E+00       7    6    1        -0.1352725193E+02      0.1352745852E+02
          0                 6           2             7    6     1       0.2331006995E+00       7    6    1         0.1330498447E+02      0.1330516002E+02
          0                 7           2             7    6     1      -0.2274082032E+00       7    6    1        -0.1309883940E+02      0.1309899741E+02
          0                 8           2             7    6     1       0.2230287156E+00       7    6    1         0.1296346231E+02      0.1296361107E+02
          0                 9           2             7    6     1      -0.2460658080E-02       7    6    1        -0.1457577323E+00      0.1578801740E+00
          0                10           2             7    6     1      -0.5369425603E-03       7    6    1        -0.3177140674E-01      0.3389730809E-01
                                                   Max.-Head-Change                         Max.-Flux-Residual
  Residual-Control   Outer-Iter.   Inner-Iter.     Column Row Layer    Maximum-Head-Change  Column Row Layer    Maximum-Flux-Residual          L2-NORM 
          0                11           2             7    6     1      -0.1173066764E-03       7    6    1        -0.6933973695E-02      0.7304705187E-02
          0                12           1             7    6     1      -0.2565722309E-04       7    6    1        -0.1515102972E-02      0.1581707404E-02
          0                13           1             7    6     1      -0.5617745921E-05       7    6    1        -0.3314285459E-03      0.3459660357E-03

    ------------------------------------------------
       NWT REQUIRED           13 OUTER ITERATIONS 
       AND A TOTAL OF         24 INNER ITERATIONS.
    ------------------------------------------------

 NO OUTPUT CONTROL FOR STRESS PERIOD    9   TIME STEP    3
 
 SOLVING FOR HEAD 
                                                   Max.-Head-Change                         Max.-Flux-Residual
  Residual-Control   Outer-Iter.   Inner-Iter.     Column Row Layer    Maximum-Head-Change  Column Row Layer    Maximum-Flux-Residual          L2-NORM 
          0                 1           2             7    6     1      -0.2294775961E+00       7    6    1        -0.1252464901E+02      0.1264081743E+02
     PET DIFF ERROR     6    7   -0.2141634223E-07    0.6500000094E-07
     PET DIFF ERROR     6    8   -0.2141634222E-07    0.6500000094E-07
          0                 2           2             7    6     1       0.2513962228E+00       7    6    1         0.1385646190E+02      0.1386300017E+02
          0                 3           2             7    6     1      -0.2730215275E+00       7    6    1        -0.1516393183E+02      0.1516497023E+02
     PET DIFF ERROR     6    7   -0.2049274561E-07    0.6500000094E-07
     PET DIFF ERROR     6    8   -0.2049274561E-07    0.6500000094E-07
          0                 4           2             7    6     1       0.2700054273E+00       7    6    1         0.1515812140E+02      0.1515863842E+02
          0                 5           2             7    6     1      -0.2391938513E+00       7    6    1        -0.1352939011E+02      0.1352959657E+02
          0                 6           2             7    6     1       0.2331399627E+00       7    6    1         0.1330723517E+02      0.1330741074E+02
          0                 7           2             7    6     1      -0.2274457899E+00       7    6    1        -0.1310101422E+02      0.1310117225E+02
          0                 8           2             7    6     1       0.2230655417E+00       7    6    1         0.1296561217E+02      0.1296576096E+02
          0                 9           2             7    6     1      -0.2460908003E-02       7    6    1        -0.1457727797E+00      0.1578982607E+00
          0                10           2             7    6     1      -0.5369960935E-03       7    6    1        -0.3177462567E-01      0.3390106822E-01
                                                   Max.-Head-Change                         Max.-Flux-Residual
  Residual-Control   Outer-Iter.   Inner-Iter.     Column Row Layer    Maximum-Head-Change  Column Row Layer    Maximum-Flux-Residual          L2-NORM 
          0                11           2             7    6     1      -0.1173181604E-03       7    6    1        -0.6934663343E-02      0.7305482525E-02
          0                12           1             7    6     1      -0.2565968989E-04       7    6    1        -0.1515250939E-02      0.1581862262E-02
          0                13           1             7    6     1      -0.5618276959E-05       7    6    1        -0.3314603468E-03      0.3459907514E-03

    ------------------------------------------------
       NWT REQUIRED           13 OUTER ITERATIONS 
       AND A TOTAL OF         24 INNER ITERATIONS.
    ------------------------------------------------

 NO OUTPUT CONTROL FOR STRESS PERIOD    9   TIME STEP    4
 
 SOLVING FOR HEAD 
                                                   Max.-Head-Change                         Max.-Flux-Residual
  Residual-Control   Outer-Iter.   Inner-Iter.     Column Row Layer    Maximum-Head-Change  Column Row Layer    Maximum-Flux-Residual          L2-NORM 
          0                 1           2             7    6     1      -0.2295136761E+00       7    6    1        -0.1252663190E+02      0.1264182750E+02
     PET DIFF ERROR     6    7   -0.2141695411E-07    0.6500000094E-07
     PET DIFF ERROR     6    8   -0.2141695410E-07    0.6500000094E-07
          0                 2           2             7    6     1       0.2514383545E+00       7    6    1         0.1385879355E+02      0.1386531600E+02
          0                 3           2             7    6     1      -0.2730224046E+00       7    6    1        -0.1516399240E+02      0.1516502848E+02
     PET DIFF ERROR     6    7   -0.2049133380E-07    0.6500000094E-07
     PET DIFF ERROR     6    8   -0.2049133380E-07    0.6500000094E-07
          0                 4           2             7    6     1       0.2700026545E+00       7    6    1         0.1515797677E+02      0.1515849363E+02
          0                 5           2             7    6     1      -0.2391944441E+00       7    6    1        -0.1352943380E+02      0.1352964018E+02
          0                 6           2             7    6     1       0.2331406890E+00       7    6    1         0.1330728627E+02      0.1330746183E+02
          0                 7           2             7    6     1      -0.2274464952E+00       7    6    1        -0.1310106465E+02      0.1310122268E+02
          0                 8           2             7    6     1       0.2230662333E+00       7    6    1         0.1296566177E+02      0.1296581057E+02
          0                 9           2             7    6     1      -0.2460320206E-02       7    6    1        -0.1457384618E+00      0.1578669976E+00
          0                10           2             7    6     1      -0.5368657340E-03       7    6    1        -0.3176701746E-01      0.3389406542E-01
                                                   Max.-Head-Change                         Max.-Flux-Residual
  Residual-Control   Outer-Iter.   Inner-Iter.     Column Row Layer    Maximum-Head-Change  Column Row Layer    Maximum-Flux-Residual          L2-NORM 
          0                11           2             7    6     1      -0.1172892391E-03       7    6    1        -0.6932975982E-02      0.7303905809E-02
          0                12           1             7    6     1      -0.2565327180E-04       7    6    1        -0.1514876588E-02      0.1581501185E-02
          0                13           1             7    6     1      -0.5616851983E-05       7    6    1        -0.3313772511E-03      0.3459039966E-03

    ------------------------------------------------
       NWT REQUIRED           13 OUTER ITERATIONS 
       AND A TOTAL OF         24 INNER ITERATIONS.
    ------------------------------------------------

 OUTPUT CONTROL FOR STRESS PERIOD    9   TIME STEP    5
    PRINT BUDGET
    SAVE BUDGET
 UBUDSV SAVING "         STORAGE" ON UNIT102 AT TIME STEP     5, STRESS PERIOD    9
 UBUDSV SAVING "   CONSTANT HEAD" ON UNIT102 AT TIME STEP     5, STRESS PERIOD    9
 UBUDSV SAVING "FLOW RIGHT FACE " ON UNIT102 AT TIME STEP     5, STRESS PERIOD    9
 UBUDSV SAVING "FLOW FRONT FACE " ON UNIT102 AT TIME STEP     5, STRESS PERIOD    9

  HEAD DEP BOUNDS   PERIOD    9   STEP     5
 BOUNDARY      1   LAYER   1   ROW    13   COL     1   RATE   -0.270434    
 BOUNDARY      2   LAYER   1   ROW    14   COL     9   RATE    0.281904    



 STREAM LISTING     PERIOD      9   STEP        5

 LAYER ROW COL. STREAM  RCH.  FLOW INTO     FLOW TO   FLOW OUT OF   OVRLND.     DIRECT     STREAM       STREAM     STREAM     STREAM   STREAMBED  STREAMBED
                SEG.NO.  NO.  STRM. RCH.    AQUIFER    STRM. RCH.    RUNOFF     PRECIP       ET          HEAD       DEPTH      WIDTH   CONDCTNC.   GRADIENT

   1    1    1     1     1    2.1000E+01  2.2592E-01   2.0774E+01  0.000E+00  0.000E+00  0.000E+00  1.09416E+03  1.115E+00  1.220E+01  5.490E-02  1.372E+00
   1    2    2     1     2    2.0774E+01  3.4916E-01   2.0425E+01  0.000E+00  0.000E+00  0.000E+00  1.08917E+03  1.110E+00  1.214E+01  8.495E-02  1.370E+00
   1    3    3     1     3    2.0425E+01  2.9709E-01   2.0128E+01  0.000E+00  0.000E+00  0.000E+00  1.08352E+03  1.105E+00  1.206E+01  7.238E-02  1.368E+00
   1    3    4     1     4    2.0128E+01  2.7299E-01   1.9855E+01  0.000E+00  0.000E+00  0.000E+00  1.07851E+03  1.100E+00  1.200E+01  6.659E-02  1.367E+00
   1    4    5     2     1    1.7855E+01  0.0000E+00   1.7855E+01  0.000E+00  0.000E+00  0.000E+00  1.07292E+03  9.867E-01  1.200E+01  0.000E+00  1.329E+00
   1    5    6     2     2    1.7855E+01  0.0000E+00   1.7855E+01  0.000E+00  0.000E+00  0.000E+00  1.06750E+03  9.867E-01  1.200E+01  0.000E+00  1.329E+00
   1    6    6     2     3    1.7855E+01  0.0000E+00   1.7855E+01  0.000E+00  0.000E+00  0.000E+00  1.06278E+03  9.867E-01  1.200E+01  0.000E+00  1.329E+00
   1    7    6     2     4    1.7855E+01  0.0000E+00   1.7855E+01  0.000E+00  0.000E+00  0.000E+00  1.05806E+03  9.867E-01  1.200E+01  0.000E+00  1.329E+00
   1    8    6     2     5    1.7855E+01  0.0000E+00   1.7855E+01  0.000E+00  0.000E+00  0.000E+00  1.05335E+03  9.867E-01  1.200E+01  0.000E+00  1.329E+00
   1    3    5     3     1    2.0000E+00  2.8252E-01   1.7175E+00  0.000E+00  0.000E+00  0.000E+00  1.07555E+03  1.909E+00  9.636E+00  7.227E-02  1.955E+00
   1    3    6     3     2    1.7175E+00  2.4905E-01   1.4684E+00  0.000E+00  0.000E+00  0.000E+00  1.07264E+03  1.727E+00  8.909E+00  6.682E-02  1.864E+00
   1    3    7     3     3    1.4684E+00  1.9718E-01   1.2712E+00  0.000E+00  0.000E+00  0.000E+00  1.06987E+03  1.555E+00  8.218E+00  5.547E-02  1.777E+00
   1    4    8     3     4    1.2712E+00  2.2567E-01   1.0456E+00  0.000E+00  0.000E+00  0.000E+00  1.06682E+03  1.364E+00  7.455E+00  6.709E-02  1.682E+00
   1    5    8     3     5    1.0456E+00  1.5790E-01   8.8768E-01  0.000E+00  0.000E+00  0.000E+00  1.06362E+03  1.164E+00  6.655E+00  4.991E-02  1.582E+00
   1    6    8     3     6    8.8768E-01  5.5980E-02   8.3170E-01  0.000E+00  0.000E+00  0.000E+00  1.06158E+03  1.036E+00  6.145E+00  1.844E-02  1.518E+00
   1    5   10     4     1    1.0000E+01  0.0000E+00   1.0000E+01  0.000E+00  0.000E+00  0.000E+00  1.07837E+03  6.385E-01  1.000E+01  0.000E+00  1.213E+00
   1    5    9     4     2    1.0000E+01  0.0000E+00   1.0000E+01  0.000E+00  0.000E+00  0.000E+00  1.07155E+03  6.385E-01  1.000E+01  0.000E+00  1.213E+00
   1    6    8     4     3    1.0000E+01  0.0000E+00   1.0000E+01  0.000E+00  0.000E+00  0.000E+00  1.06382E+03  6.385E-01  1.000E+01  0.000E+00  1.213E+00
   1    6    8     5     1    1.0832E+01  2.3262E-01   1.0599E+01  0.000E+00  0.000E+00  0.000E+00  1.05869E+03  6.881E-01  1.577E+01  6.307E-02  1.229E+00
   1    7    7     5     2    1.0599E+01  2.8607E-01   1.0313E+01  0.000E+00  0.000E+00  0.000E+00  1.05418E+03  6.822E-01  1.554E+01  7.769E-02  1.227E+00
   1    8    7     5     3    1.0313E+01  1.9716E-01   1.0116E+01  0.000E+00  0.000E+00  0.000E+00  1.04993E+03  6.766E-01  1.532E+01  5.363E-02  1.226E+00
   1    8    6     5     4    1.0116E+01  1.3929E-01   9.9766E+00  0.000E+00  0.000E+00  0.000E+00  1.04692E+03  6.727E-01  1.517E+01  3.792E-02  1.224E+00
   1    9    6     6     1    2.4586E+01  0.0000E+00   2.4586E+01  0.000E+00  0.000E+00  0.000E+00  1.04394E+03  1.209E+00  1.200E+01  0.000E+00  1.403E+00
   1   10    7     6     2    2.4586E+01  0.0000E+00   2.4586E+01  0.000E+00  0.000E+00  0.000E+00  1.03939E+03  1.209E+00  1.200E+01  0.000E+00  1.403E+00
   1   11    7     6     3    2.4586E+01  0.0000E+00   2.4586E+01  0.000E+00  0.000E+00  0.000E+00  1.03485E+03  1.209E+00  1.200E+01  0.000E+00  1.403E+00
   1   12    7     6     4    2.4586E+01  0.0000E+00   2.4586E+01  0.000E+00  0.000E+00  0.000E+00  1.03030E+03  1.209E+00  1.200E+01  0.000E+00  1.403E+00
   1   13    7     6     5    2.4586E+01  0.0000E+00   2.4586E+01  0.000E+00  0.000E+00  0.000E+00  1.02712E+03  1.209E+00  1.200E+01  0.000E+00  2.098E-01
   1   14    9     7     1    1.5000E+02  1.2792E+00   1.4872E+02  0.000E+00  0.000E+00  0.000E+00  1.03987E+03  2.288E+00  5.530E+01  5.593E-01  7.624E-01
   1   13    8     7     2    1.4872E+02  1.9329E+00   1.4679E+02  0.000E+00  0.000E+00  0.000E+00  1.03478E+03  2.279E+00  5.526E+01  6.148E-01  1.048E+00
   1   13    7     7     3    1.4679E+02  1.7870E+00   1.4500E+02  0.000E+00  0.000E+00  0.000E+00  1.02969E+03  2.269E+00  5.521E+01  5.584E-01  1.067E+00
   1   13    6     8     1    1.6959E+02  1.3506E+00   1.6824E+02  0.000E+00  0.000E+00  0.000E+00  1.02482E+03  2.945E+00  4.270E+01  4.352E-01  1.035E+00
   1   13    5     8     2    1.6824E+02  6.7294E-01   1.6756E+02  0.000E+00  0.000E+00  0.000E+00  1.01856E+03  2.938E+00  4.261E+01  4.342E-01  5.166E-01
   1   13    4     8     3    1.6756E+02 -4.3141E-01   1.6800E+02  0.000E+00  0.000E+00  0.000E+00  1.01231E+03  2.938E+00  4.260E+01  4.341E+00 -3.313E-02
   1   13    3     8     4    1.6800E+02 -2.1569E+00   1.7015E+02  0.000E+00  0.000E+00  0.000E+00  1.00607E+03  2.946E+00  4.272E+01  4.353E+00 -1.652E-01
   1   13    2     8     5    1.7015E+02 -1.1496E+00   1.7130E+02  0.000E+00  0.000E+00  0.000E+00  9.99832E+02  2.957E+00  4.288E+01  4.369E+00 -8.771E-02
   1   13    1     8     6    1.7130E+02 -7.3202E-01   1.7203E+02  0.000E+00  0.000E+00  0.000E+00  9.94838E+02  2.963E+00  4.296E+01  2.627E+00 -9.289E-02
   1    6    8     9     1    3.2450E+00  0.0000E+00   3.2450E+00  0.000E+00  0.000E+00  0.000E+00  1.07877E+03  2.743E-01  4.000E+00  0.000E+00  1.091E+00



 UBDSV3 SAVING "     NETRECHARGE" ON UNIT 100 AT TIME STEP     5, STRESS PERIOD   9
 UBDSV3 SAVING "    NETDISCHARGE" ON UNIT 101 AT TIME STEP     5, STRESS PERIOD   9
 UBDSV3 SAVING "           GW ET" ON UNIT  61 AT TIME STEP     5, STRESS PERIOD   9
 UBDSV3 SAVING "    UZF RECHARGE" ON UNIT  61 AT TIME STEP     5, STRESS PERIOD   9
 UBDSV3 SAVING " SURFACE LEAKAGE" ON UNIT  61 AT TIME STEP     5, STRESS PERIOD   9
 UBDSV3 SAVING "       HORT+DUNN" ON UNIT  61 AT TIME STEP     5, STRESS PERIOD   9
 UBDSV3 SAVING "  STORAGE CHANGE" ON UNIT  61 AT TIME STEP     5, STRESS PERIOD   9


UNSATURATED ZONE PACKAGE VOLUMETRIC BUDGET FOR  TIME STEP     5 STRESS PERIOD    9
  ------------------------------------------------------------------------------



     CUMULATIVE VOLUMES      L**3       RATES FOR THIS TIME STEP      L**3/T
     ------------------                 ------------------------

           IN:                                      IN:
           ---                                      ---
        INFILTRATION =    26678374.9676          INFILTRATION =           4.0925

          OUT:                                     OUT:
          ----                                     ----
              UZF ET =   554729083.0348                UZF ET =           4.0925
        UZF RECHARGE =   510821331.7407          UZF RECHARGE =          24.1067

            IN - OUT = -1038872039.8080              IN - OUT =         -24.1067

          STORAGE:                                 STORAGE:
          --------                                 --------
      STORAGE CHANGE = -1038864309.8661        STORAGE CHANGE =         -24.1067

 PERCENT DISCREPANCY IS DIFFERENCE BETWEEN IN-OUT MINUS CHANGE IN STORAGE
 DIVIDED BY THE AVERAGE OF IN AND OUT TIMES 100

 PERCENT DISCREPANCY =          -0.00     PERCENT DISCREPANCY =           0.00






1
  VOLUMETRIC BUDGET FOR ENTIRE MODEL AT END OF TIME STEP    5, STRESS PERIOD   9
  ------------------------------------------------------------------------------

     CUMULATIVE VOLUMES      L**3       RATES FOR THIS TIME STEP      L**3/T
     ------------------                 ------------------------

           IN:                                      IN:
           ---                                      ---
             STORAGE =    24647308.0000               STORAGE =           1.7925
       CONSTANT HEAD =           0.0000         CONSTANT HEAD =           0.0000
               WELLS =           0.0000                 WELLS =           0.0000
     HEAD DEP BOUNDS =     6147921.0000       HEAD DEP BOUNDS =           0.2819
      STREAM LEAKAGE =   227086720.0000        STREAM LEAKAGE =          10.1912
        UZF RECHARGE =   510821312.0000          UZF RECHARGE =          24.1067
               GW ET =           0.0000                 GW ET =           0.0000
     SURFACE LEAKAGE =           0.0000       SURFACE LEAKAGE =           0.0000

            TOTAL IN =   768703232.0000              TOTAL IN =          36.3724

          OUT:                                     OUT:
          ----                                     ----
             STORAGE =   543338048.0000               STORAGE =          22.8790
       CONSTANT HEAD =           0.0000         CONSTANT HEAD =           0.0000
               WELLS =           0.0000                 WELLS =           0.0000
     HEAD DEP BOUNDS =     6219121.0000       HEAD DEP BOUNDS =           0.2704
      STREAM LEAKAGE =   172790848.0000        STREAM LEAKAGE =           4.4699
        UZF RECHARGE =           0.0000          UZF RECHARGE =           0.0000
               GW ET =    46315408.0000                 GW ET =           8.7528
     SURFACE LEAKAGE =           0.0000       SURFACE LEAKAGE =           0.0000

           TOTAL OUT =   768663424.0000             TOTAL OUT =          36.3722

            IN - OUT =       39808.0000              IN - OUT =       1.3351E-04

 PERCENT DISCREPANCY =           0.01     PERCENT DISCREPANCY =           0.00






         TIME SUMMARY AT END OF TIME STEP    5 IN STRESS PERIOD    9
                    SECONDS     MINUTES      HOURS       DAYS        YEARS
                    -----------------------------------------------------------
   TIME STEP LENGTH  87600.      1460.0      24.333      1.0139     2.77588E-03
 STRESS PERIOD TIME 4.38000E+05  7300.0      121.67      5.0694     1.38794E-02
         TOTAL TIME 2.14620E+07 3.57700E+05  5961.7      248.40     0.68009    
1
 
 SOLVING FOR HEAD 
                                                   Max.-Head-Change                         Max.-Flux-Residual
  Residual-Control   Outer-Iter.   Inner-Iter.     Column Row Layer    Maximum-Head-Change  Column Row Layer    Maximum-Flux-Residual          L2-NORM 
          0                 1           2             7    6     1      -0.2295123574E+00       7    6    1        -0.1252657553E+02      0.1264089285E+02
     PET DIFF ERROR     6    7   -0.2141756544E-07    0.6500000094E-07
     PET DIFF ERROR     6    8   -0.2141756543E-07    0.6500000094E-07
          0                 2           2             7    6     1       0.2514397007E+00       7    6    1         0.1385887681E+02      0.1386538343E+02
          0                 3           2             7    6     1      -0.2730205028E+00       7    6    1        -0.1516389837E+02      0.1516493183E+02
     PET DIFF ERROR     6    7   -0.2049069246E-07    0.6500000094E-07
     PET DIFF ERROR     6    8   -0.2049069246E-07    0.6500000094E-07
          0                 4           2             7    6     1       0.2700005064E+00       7    6    1         0.1515786723E+02      0.1515838389E+02
          0                 5           2             7    6     1      -0.2391936098E+00       7    6    1        -0.1352939680E+02      0.1352960307E+02
          0                 6           2             7    6     1       0.2331398718E+00       7    6    1         0.1330724928E+02      0.1330742482E+02
          0                 7           2             7    6     1      -0.2274457563E+00       7    6    1        -0.1310103190E+02      0.1310118993E+02
          0                 8           2             7    6     1       0.2230655117E+00       7    6    1         0.1296562924E+02      0.1296577804E+02
          0                 9           2             7    6     1      -0.2459704336E-02       7    6    1        -0.1457024884E+00      0.1578340565E+00
          0                10           2             7    6     1      -0.5367292175E-03       7    6    1        -0.3175904649E-01      0.3388669211E-01
                                                   Max.-Head-Change                         Max.-Flux-Residual
  Residual-Control   Outer-Iter.   Inner-Iter.     Column Row Layer    Maximum-Head-Change  Column Row Layer    Maximum-Flux-Residual          L2-NORM 
          0                11           2             7    6     1      -0.1172589666E-03       7    6    1        -0.6931209048E-02      0.7302247979E-02
          0                12           1             7    6     1      -0.2564655593E-04       7    6    1        -0.1514484751E-02      0.1581121022E-02
          0                13           1             7    6     1      -0.5615361426E-05       7    6    1        -0.3312903355E-03      0.3458094755E-03

    ------------------------------------------------
       NWT REQUIRED           13 OUTER ITERATIONS 
       AND A TOTAL OF         24 INNER ITERATIONS.
    ------------------------------------------------

 NO OUTPUT CONTROL FOR STRESS PERIOD    9   TIME STEP    6
 
 SOLVING FOR HEAD 
                                                   Max.-Head-Change                         Max.-Flux-Residual
  Residual-Control   Outer-Iter.   Inner-Iter.     Column Row Layer    Maximum-Head-Change  Column Row Layer    Maximum-Flux-Residual          L2-NORM 
          0                 1           2             7    6     1      -0.2295095960E+00       7    6    1        -0.1252644045E+02      0.1263997534E+02
     PET DIFF ERROR     6    7   -0.2141817182E-07    0.6500000094E-07
     PET DIFF ERROR     6    8   -0.2141817183E-07    0.6500000094E-07
          0                 2           2             7    6     1       0.2514394486E+00       7    6    1         0.1385887198E+02      0.1386536400E+02
          0                 3           2             7    6     1      -0.2730185162E+00       7    6    1        -0.1516379962E+02      0.1516483060E+02
     PET DIFF ERROR     6    7   -0.2049010338E-07    0.6500000094E-07
     PET DIFF ERROR     6    8   -0.2049010338E-07    0.6500000094E-07
          0                 4           2             7    6     1       0.2699984086E+00       7    6    1         0.1515776052E+02      0.1515827698E+02
          0                 5           2             7    6     1      -0.2391927003E+00       7    6    1        -0.1352935554E+02      0.1352956172E+02
          0                 6           2             7    6     1       0.2331389716E+00       7    6    1         0.1330720755E+02      0.1330738308E+02
          0                 7           2             7    6     1      -0.2274449540E+00       7    6    1        -0.1310099550E+02      0.1310115353E+02
          0                 8           2             7    6     1       0.2230647288E+00       7    6    1         0.1296559315E+02      0.1296574195E+02
          0                 9           2             7    6     1      -0.2459092915E-02       7    6    1        -0.1456667756E+00      0.1578013531E+00
          0                10           2             7    6     1      -0.5365936844E-03       7    6    1        -0.3175113307E-01      0.3387937488E-01
                                                   Max.-Head-Change                         Max.-Flux-Residual
  Residual-Control   Outer-Iter.   Inner-Iter.     Column Row Layer    Maximum-Head-Change  Column Row Layer    Maximum-Flux-Residual          L2-NORM 
          0                11           2             7    6     1      -0.1172289112E-03       7    6    1        -0.6929454837E-02      0.7300603385E-02
          0                12           1             7    6     1      -0.2563988901E-04       7    6    1        -0.1514095743E-02      0.1580745202E-02
          0                13           1             7    6     1      -0.5613881915E-05       7    6    1        -0.3312040226E-03      0.3457177868E-03

    ------------------------------------------------
       NWT REQUIRED           13 OUTER ITERATIONS 
       AND A TOTAL OF         24 INNER ITERATIONS.
    ------------------------------------------------

 NO OUTPUT CONTROL FOR STRESS PERIOD    9   TIME STEP    7
 
 SOLVING FOR HEAD 
                                                   Max.-Head-Change                         Max.-Flux-Residual
  Residual-Control   Outer-Iter.   Inner-Iter.     Column Row Layer    Maximum-Head-Change  Column Row Layer    Maximum-Flux-Residual          L2-NORM 
          0                 1           2             7    6     1      -0.2295066767E+00       7    6    1        -0.1252629645E+02      0.1263910265E+02
     PET DIFF ERROR     6    7   -0.2141877794E-07    0.6500000094E-07
     PET DIFF ERROR     6    8   -0.2141877794E-07    0.6500000094E-07
          0                 2           2             7    6     1       0.2514391103E+00       7    6    1         0.1385886245E+02      0.1386534126E+02
          0                 3           2             7    6     1      -0.2730165211E+00       7    6    1        -0.1516370040E+02      0.1516472915E+02
     PET DIFF ERROR     6    7   -0.2048950917E-07    0.6500000094E-07
     PET DIFF ERROR     6    8   -0.2048950916E-07    0.6500000094E-07
          0                 4           2             7    6     1       0.2699963090E+00       7    6    1         0.1515765372E+02      0.1515817001E+02
          0                 5           2             7    6     1      -0.2391918048E+00       7    6    1        -0.1352931508E+02      0.1352952117E+02
          0                 6           2             7    6     1       0.2331380861E+00       7    6    1         0.1330716666E+02      0.1330734217E+02
          0                 7           2             7    6     1      -0.2274441328E+00       7    6    1        -0.1310095801E+02      0.1310111605E+02
          0                 8           2             7    6     1       0.2230639257E+00       7    6    1         0.1296555588E+02      0.1296570468E+02
          0                 9           2             7    6     1      -0.2458461957E-02       7    6    1        -0.1456299168E+00      0.1577675927E+00
          0                10           2             7    6     1      -0.5364538407E-03       7    6    1        -0.3174296696E-01      0.3387182417E-01
                                                   Max.-Head-Change                         Max.-Flux-Residual
  Residual-Control   Outer-Iter.   Inner-Iter.     Column Row Layer    Maximum-Head-Change  Column Row Layer    Maximum-Flux-Residual          L2-NORM 
          0                11           2             7    6     1      -0.1171979042E-03       7    6    1        -0.6927644858E-02      0.7298907763E-02
          0                12           1             7    6     1      -0.2563301094E-04       7    6    1        -0.1513694406E-02      0.1580358769E-02
          0                13           1             7    6     1      -0.5612355777E-05       7    6    1        -0.3311150163E-03      0.3456251995E-03

    ------------------------------------------------
       NWT REQUIRED           13 OUTER ITERATIONS 
       AND A TOTAL OF         24 INNER ITERATIONS.
    ------------------------------------------------

 NO OUTPUT CONTROL FOR STRESS PERIOD    9   TIME STEP    8
 
 SOLVING FOR HEAD 
                                                   Max.-Head-Change                         Max.-Flux-Residual
  Residual-Control   Outer-Iter.   Inner-Iter.     Column Row Layer    Maximum-Head-Change  Column Row Layer    Maximum-Flux-Residual          L2-NORM 
          0                 1           2             7    6     1      -0.2295038953E+00       7    6    1        -0.1252616004E+02      0.1263829443E+02
     PET DIFF ERROR     6    7   -0.2141938382E-07    0.6500000094E-07
     PET DIFF ERROR     6    8   -0.2141938382E-07    0.6500000094E-07
          0                 2           2             7    6     1       0.2514387687E+00       7    6    1         0.1385885274E+02      0.1386531864E+02
          0                 3           2             7    6     1      -0.2730145449E+00       7    6    1        -0.1516360223E+02      0.1516462879E+02
     PET DIFF ERROR     6    7   -0.2048891041E-07    0.6500000094E-07
     PET DIFF ERROR     6    8   -0.2048891041E-07    0.6500000094E-07
          0                 4           2             7    6     1       0.2699942300E+00       7    6    1         0.1515754808E+02      0.1515806419E+02
          0                 5           2             7    6     1      -0.2391909124E+00       7    6    1        -0.1352927480E+02      0.1352948081E+02
          0                 6           2             7    6     1       0.2331372021E+00       7    6    1         0.1330712587E+02      0.1330730136E+02
          0                 7           2             7    6     1      -0.2274433631E+00       7    6    1        -0.1310092350E+02      0.1310108153E+02
          0                 8           2             7    6     1       0.2230631755E+00       7    6    1         0.1296552171E+02      0.1296567051E+02
          0                 9           2             7    6     1      -0.2457866618E-02       7    6    1        -0.1455951474E+00      0.1577357681E+00
          0                10           2             7    6     1      -0.5363218555E-03       7    6    1        -0.3173526156E-01      0.3386470271E-01
                                                   Max.-Head-Change                         Max.-Flux-Residual
  Residual-Control   Outer-Iter.   Inner-Iter.     Column Row Layer    Maximum-Head-Change  Column Row Layer    Maximum-Flux-Residual          L2-NORM 
          0                11           2             7    6     1      -0.1171686323E-03       7    6    1        -0.6925936563E-02      0.7297307539E-02
          0                12           1             7    6     1      -0.2562651704E-04       7    6    1        -0.1513315537E-02      0.1579993496E-02
          0                13           1             7    6     1      -0.5610914405E-05       7    6    1        -0.3310309489E-03      0.3455363898E-03

    ------------------------------------------------
       NWT REQUIRED           13 OUTER ITERATIONS 
       AND A TOTAL OF         24 INNER ITERATIONS.
    ------------------------------------------------

 NO OUTPUT CONTROL FOR STRESS PERIOD    9   TIME STEP    9
 
 SOLVING FOR HEAD 
                                                   Max.-Head-Change                         Max.-Flux-Residual
  Residual-Control   Outer-Iter.   Inner-Iter.     Column Row Layer    Maximum-Head-Change  Column Row Layer    Maximum-Flux-Residual          L2-NORM 
          0                 1           2             7    6     1      -0.2295010579E+00       7    6    1        -0.1252602053E+02      0.1263754598E+02
     PET DIFF ERROR     6    7   -0.2141998950E-07    0.6500000094E-07
     PET DIFF ERROR     6    8   -0.2141998949E-07    0.6500000094E-07
          0                 2           2             7    6     1       0.2514384560E+00       7    6    1         0.1385884464E+02      0.1386529808E+02
          0                 3           2             7    6     1      -0.2730125496E+00       7    6    1        -0.1516350301E+02      0.1516452733E+02
     PET DIFF ERROR     6    7   -0.2048831578E-07    0.6500000094E-07
     PET DIFF ERROR     6    8   -0.2048831578E-07    0.6500000094E-07
          0                 4           2             7    6     1       0.2699921279E+00       7    6    1         0.1515744115E+02      0.1515795693E+02
          0                 5           2             7    6     1      -0.2391900149E+00       7    6    1        -0.1352923423E+02      0.1352944010E+02
          0                 6           2             7    6     1       0.2331363142E+00       7    6    1         0.1330708486E+02      0.1330726032E+02
          0                 7           2             7    6     1      -0.2274425562E+00       7    6    1        -0.1310088685E+02      0.1310104488E+02
          0                 8           2             7    6     1       0.2230623873E+00       7    6    1         0.1296548532E+02      0.1296563413E+02
          0                 9           2             7    6     1      -0.2457250323E-02       7    6    1        -0.1455591487E+00      0.1577028067E+00
          0                10           2             7    6     1      -0.5361852472E-03       7    6    1        -0.3172728512E-01      0.3385732960E-01
                                                   Max.-Head-Change                         Max.-Flux-Residual
  Residual-Control   Outer-Iter.   Inner-Iter.     Column Row Layer    Maximum-Head-Change  Column Row Layer    Maximum-Flux-Residual          L2-NORM 
          0                11           2             7    6     1      -0.1171383399E-03       7    6    1        -0.6924168442E-02      0.7295651488E-02
          0                12           1             7    6     1      -0.2561979698E-04       7    6    1        -0.1512923442E-02      0.1579616114E-02
          0                13           1             7    6     1      -0.5609423151E-05       7    6    1        -0.3309439714E-03      0.3454458894E-03

    ------------------------------------------------
       NWT REQUIRED           13 OUTER ITERATIONS 
       AND A TOTAL OF         24 INNER ITERATIONS.
    ------------------------------------------------

 OUTPUT CONTROL FOR STRESS PERIOD    9   TIME STEP   10
    PRINT BUDGET
    SAVE BUDGET
 UBUDSV SAVING "         STORAGE" ON UNIT102 AT TIME STEP    10, STRESS PERIOD    9
 UBUDSV SAVING "   CONSTANT HEAD" ON UNIT102 AT TIME STEP    10, STRESS PERIOD    9
 UBUDSV SAVING "FLOW RIGHT FACE " ON UNIT102 AT TIME STEP    10, STRESS PERIOD    9
 UBUDSV SAVING "FLOW FRONT FACE " ON UNIT102 AT TIME STEP    10, STRESS PERIOD    9

  HEAD DEP BOUNDS   PERIOD    9   STEP    10
 BOUNDARY      1   LAYER   1   ROW    13   COL     1   RATE   -0.269822    
 BOUNDARY      2   LAYER   1   ROW    14   COL     9   RATE    0.281848    



 STREAM LISTING     PERIOD      9   STEP       10

 LAYER ROW COL. STREAM  RCH.  FLOW INTO     FLOW TO   FLOW OUT OF   OVRLND.     DIRECT     STREAM       STREAM     STREAM     STREAM   STREAMBED  STREAMBED
                SEG.NO.  NO.  STRM. RCH.    AQUIFER    STRM. RCH.    RUNOFF     PRECIP       ET          HEAD       DEPTH      WIDTH   CONDCTNC.   GRADIENT

   1    1    1     1     1    2.1000E+01  2.2592E-01   2.0774E+01  0.000E+00  0.000E+00  0.000E+00  1.09416E+03  1.115E+00  1.220E+01  5.490E-02  1.372E+00
   1    2    2     1     2    2.0774E+01  3.4916E-01   2.0425E+01  0.000E+00  0.000E+00  0.000E+00  1.08917E+03  1.110E+00  1.214E+01  8.495E-02  1.370E+00
   1    3    3     1     3    2.0425E+01  2.9709E-01   2.0128E+01  0.000E+00  0.000E+00  0.000E+00  1.08352E+03  1.105E+00  1.206E+01  7.238E-02  1.368E+00
   1    3    4     1     4    2.0128E+01  2.7299E-01   1.9855E+01  0.000E+00  0.000E+00  0.000E+00  1.07851E+03  1.100E+00  1.200E+01  6.659E-02  1.367E+00
   1    4    5     2     1    1.7855E+01  0.0000E+00   1.7855E+01  0.000E+00  0.000E+00  0.000E+00  1.07292E+03  9.867E-01  1.200E+01  0.000E+00  1.329E+00
   1    5    6     2     2    1.7855E+01  0.0000E+00   1.7855E+01  0.000E+00  0.000E+00  0.000E+00  1.06750E+03  9.867E-01  1.200E+01  0.000E+00  1.329E+00
   1    6    6     2     3    1.7855E+01  0.0000E+00   1.7855E+01  0.000E+00  0.000E+00  0.000E+00  1.06278E+03  9.867E-01  1.200E+01  0.000E+00  1.329E+00
   1    7    6     2     4    1.7855E+01  0.0000E+00   1.7855E+01  0.000E+00  0.000E+00  0.000E+00  1.05806E+03  9.867E-01  1.200E+01  0.000E+00  1.329E+00
   1    8    6     2     5    1.7855E+01  0.0000E+00   1.7855E+01  0.000E+00  0.000E+00  0.000E+00  1.05335E+03  9.867E-01  1.200E+01  0.000E+00  1.329E+00
   1    3    5     3     1    2.0000E+00  2.8252E-01   1.7175E+00  0.000E+00  0.000E+00  0.000E+00  1.07555E+03  1.909E+00  9.636E+00  7.227E-02  1.955E+00
   1    3    6     3     2    1.7175E+00  2.4905E-01   1.4684E+00  0.000E+00  0.000E+00  0.000E+00  1.07264E+03  1.727E+00  8.909E+00  6.682E-02  1.864E+00
   1    3    7     3     3    1.4684E+00  1.9718E-01   1.2712E+00  0.000E+00  0.000E+00  0.000E+00  1.06987E+03  1.555E+00  8.218E+00  5.547E-02  1.777E+00
   1    4    8     3     4    1.2712E+00  2.2567E-01   1.0456E+00  0.000E+00  0.000E+00  0.000E+00  1.06682E+03  1.364E+00  7.455E+00  6.709E-02  1.682E+00
   1    5    8     3     5    1.0456E+00  1.5790E-01   8.8768E-01  0.000E+00  0.000E+00  0.000E+00  1.06362E+03  1.164E+00  6.655E+00  4.991E-02  1.582E+00
   1    6    8     3     6    8.8768E-01  5.5980E-02   8.3170E-01  0.000E+00  0.000E+00  0.000E+00  1.06158E+03  1.036E+00  6.145E+00  1.844E-02  1.518E+00
   1    5   10     4     1    1.0000E+01  0.0000E+00   1.0000E+01  0.000E+00  0.000E+00  0.000E+00  1.07837E+03  6.385E-01  1.000E+01  0.000E+00  1.213E+00
   1    5    9     4     2    1.0000E+01  0.0000E+00   1.0000E+01  0.000E+00  0.000E+00  0.000E+00  1.07155E+03  6.385E-01  1.000E+01  0.000E+00  1.213E+00
   1    6    8     4     3    1.0000E+01  0.0000E+00   1.0000E+01  0.000E+00  0.000E+00  0.000E+00  1.06382E+03  6.385E-01  1.000E+01  0.000E+00  1.213E+00
   1    6    8     5     1    1.0832E+01  2.3262E-01   1.0599E+01  0.000E+00  0.000E+00  0.000E+00  1.05869E+03  6.881E-01  1.577E+01  6.307E-02  1.229E+00
   1    7    7     5     2    1.0599E+01  2.8607E-01   1.0313E+01  0.000E+00  0.000E+00  0.000E+00  1.05418E+03  6.822E-01  1.554E+01  7.769E-02  1.227E+00
   1    8    7     5     3    1.0313E+01  1.9716E-01   1.0116E+01  0.000E+00  0.000E+00  0.000E+00  1.04993E+03  6.766E-01  1.532E+01  5.363E-02  1.226E+00
   1    8    6     5     4    1.0116E+01  1.3929E-01   9.9766E+00  0.000E+00  0.000E+00  0.000E+00  1.04692E+03  6.727E-01  1.517E+01  3.792E-02  1.224E+00
   1    9    6     6     1    2.4586E+01  0.0000E+00   2.4586E+01  0.000E+00  0.000E+00  0.000E+00  1.04394E+03  1.209E+00  1.200E+01  0.000E+00  1.403E+00
   1   10    7     6     2    2.4586E+01  0.0000E+00   2.4586E+01  0.000E+00  0.000E+00  0.000E+00  1.03939E+03  1.209E+00  1.200E+01  0.000E+00  1.403E+00
   1   11    7     6     3    2.4586E+01  0.0000E+00   2.4586E+01  0.000E+00  0.000E+00  0.000E+00  1.03485E+03  1.209E+00  1.200E+01  0.000E+00  1.403E+00
   1   12    7     6     4    2.4586E+01  0.0000E+00   2.4586E+01  0.000E+00  0.000E+00  0.000E+00  1.03030E+03  1.209E+00  1.200E+01  0.000E+00  1.403E+00
   1   13    7     6     5    2.4586E+01  0.0000E+00   2.4586E+01  0.000E+00  0.000E+00  0.000E+00  1.02712E+03  1.209E+00  1.200E+01  0.000E+00  2.122E-01
   1   14    9     7     1    1.5000E+02  1.2784E+00   1.4872E+02  0.000E+00  0.000E+00  0.000E+00  1.03987E+03  2.288E+00  5.530E+01  5.593E-01  7.619E-01
   1   13    8     7     2    1.4872E+02  1.9325E+00   1.4679E+02  0.000E+00  0.000E+00  0.000E+00  1.03478E+03  2.279E+00  5.526E+01  6.148E-01  1.048E+00
   1   13    7     7     3    1.4679E+02  1.7910E+00   1.4500E+02  0.000E+00  0.000E+00  0.000E+00  1.02969E+03  2.269E+00  5.521E+01  5.584E-01  1.069E+00
   1   13    6     8     1    1.6958E+02  1.3545E+00   1.6823E+02  0.000E+00  0.000E+00  0.000E+00  1.02482E+03  2.945E+00  4.270E+01  4.352E-01  1.038E+00
   1   13    5     8     2    1.6823E+02  6.8452E-01   1.6755E+02  0.000E+00  0.000E+00  0.000E+00  1.01856E+03  2.938E+00  4.261E+01  4.342E-01  5.255E-01
   1   13    4     8     3    1.6755E+02 -3.8580E-01   1.6793E+02  0.000E+00  0.000E+00  0.000E+00  1.01231E+03  2.937E+00  4.259E+01  4.340E+00 -2.963E-02
   1   13    3     8     4    1.6793E+02 -2.1308E+00   1.7006E+02  0.000E+00  0.000E+00  0.000E+00  1.00607E+03  2.946E+00  4.271E+01  4.353E+00 -1.632E-01
   1   13    2     8     5    1.7006E+02 -1.1106E+00   1.7117E+02  0.000E+00  0.000E+00  0.000E+00  9.99831E+02  2.956E+00  4.287E+01  4.368E+00 -8.475E-02
   1   13    1     8     6    1.7117E+02 -6.9198E-01   1.7186E+02  0.000E+00  0.000E+00  0.000E+00  9.94837E+02  2.962E+00  4.295E+01  2.626E+00 -8.784E-02
   1    6    8     9     1    3.2450E+00  0.0000E+00   3.2450E+00  0.000E+00  0.000E+00  0.000E+00  1.07877E+03  2.743E-01  4.000E+00  0.000E+00  1.091E+00



 UBDSV3 SAVING "     NETRECHARGE" ON UNIT 100 AT TIME STEP    10, STRESS PERIOD   9
 UBDSV3 SAVING "    NETDISCHARGE" ON UNIT 101 AT TIME STEP    10, STRESS PERIOD   9
 UBDSV3 SAVING "           GW ET" ON UNIT  61 AT TIME STEP    10, STRESS PERIOD   9
 UBDSV3 SAVING "    UZF RECHARGE" ON UNIT  61 AT TIME STEP    10, STRESS PERIOD   9
 UBDSV3 SAVING " SURFACE LEAKAGE" ON UNIT  61 AT TIME STEP    10, STRESS PERIOD   9
 UBDSV3 SAVING "       HORT+DUNN" ON UNIT  61 AT TIME STEP    10, STRESS PERIOD   9
 UBDSV3 SAVING "  STORAGE CHANGE" ON UNIT  61 AT TIME STEP    10, STRESS PERIOD   9


UNSATURATED ZONE PACKAGE VOLUMETRIC BUDGET FOR  TIME STEP    10 STRESS PERIOD    9
  ------------------------------------------------------------------------------



     CUMULATIVE VOLUMES      L**3       RATES FOR THIS TIME STEP      L**3/T
     ------------------                 ------------------------

           IN:                                      IN:
           ---                                      ---
        INFILTRATION =    28470875.5926          INFILTRATION =           4.0925

          OUT:                                     OUT:
          ----                                     ----
              UZF ET =   556521598.0351                UZF ET =           4.0925
        UZF RECHARGE =   521360048.3573          UZF RECHARGE =          24.0385

            IN - OUT = -1049410770.7999              IN - OUT =         -24.0385

          STORAGE:                                 STORAGE:
          --------                                 --------
      STORAGE CHANGE = -1049403040.8789        STORAGE CHANGE =         -24.0385

 PERCENT DISCREPANCY IS DIFFERENCE BETWEEN IN-OUT MINUS CHANGE IN STORAGE
 DIVIDED BY THE AVERAGE OF IN AND OUT TIMES 100

 PERCENT DISCREPANCY =          -0.00     PERCENT DISCREPANCY =           0.00






1
  VOLUMETRIC BUDGET FOR ENTIRE MODEL AT END OF TIME STEP   10, STRESS PERIOD   9
  ------------------------------------------------------------------------------

     CUMULATIVE VOLUMES      L**3       RATES FOR THIS TIME STEP      L**3/T
     ------------------                 ------------------------

           IN:                                      IN:
           ---                                      ---
             STORAGE =    25348626.0000               STORAGE =           1.4836
       CONSTANT HEAD =           0.0000         CONSTANT HEAD =           0.0000
               WELLS =           0.0000                 WELLS =           0.0000
     HEAD DEP BOUNDS =     6271381.0000       HEAD DEP BOUNDS =           0.2818
      STREAM LEAKAGE =   231555440.0000        STREAM LEAKAGE =          10.2096
        UZF RECHARGE =   521360032.0000          UZF RECHARGE =          24.0385
               GW ET =           0.0000                 GW ET =           0.0000
     SURFACE LEAKAGE =           0.0000       SURFACE LEAKAGE =           0.0000

            TOTAL IN =   784535488.0000              TOTAL IN =          36.0135

          OUT:                                     OUT:
          ----                                     ----
             STORAGE =   553313408.0000               STORAGE =          22.7147
       CONSTANT HEAD =           0.0000         CONSTANT HEAD =           0.0000
               WELLS =           0.0000                 WELLS =           0.0000
     HEAD DEP BOUNDS =     6337405.5000       HEAD DEP BOUNDS =           0.2698
      STREAM LEAKAGE =   174707520.0000        STREAM LEAKAGE =           4.3191
        UZF RECHARGE =           0.0000          UZF RECHARGE =           0.0000
               GW ET =    50137280.0000                 GW ET =           8.7097
     SURFACE LEAKAGE =           0.0000       SURFACE LEAKAGE =           0.0000

           TOTAL OUT =   784495616.0000             TOTAL OUT =          36.0134

            IN - OUT =       39872.0000              IN - OUT =       1.2589E-04

 PERCENT DISCREPANCY =           0.01     PERCENT DISCREPANCY =           0.00






         TIME SUMMARY AT END OF TIME STEP   10 IN STRESS PERIOD    9
                    SECONDS     MINUTES      HOURS       DAYS        YEARS
                    -----------------------------------------------------------
   TIME STEP LENGTH  87600.      1460.0      24.333      1.0139     2.77588E-03
 STRESS PERIOD TIME 8.76000E+05  14600.      243.33      10.139     2.77588E-02
         TOTAL TIME 2.19000E+07 3.65000E+05  6083.3      253.47     0.69397    
1
 
 SOLVING FOR HEAD 
                                                   Max.-Head-Change                         Max.-Flux-Residual
  Residual-Control   Outer-Iter.   Inner-Iter.     Column Row Layer    Maximum-Head-Change  Column Row Layer    Maximum-Flux-Residual          L2-NORM 
          0                 1           2             7    6     1      -0.2294983557E+00       7    6    1        -0.1252588837E+02      0.1263684493E+02
     PET DIFF ERROR     6    7   -0.2142059797E-07    0.6500000094E-07
     PET DIFF ERROR     6    8   -0.2142059798E-07    0.6500000094E-07
          0                 2           2             7    6     1       0.2514381397E+00       7    6    1         0.1385883634E+02      0.1386527713E+02
          0                 3           2             7    6     1      -0.2730105900E+00       7    6    1        -0.1516340578E+02      0.1516442788E+02
     PET DIFF ERROR     6    7   -0.2048813849E-07    0.6500000094E-07
     PET DIFF ERROR     6    8   -0.2048813849E-07    0.6500000094E-07
          0                 4           2             7    6     1       0.2699900644E+00       7    6    1         0.1515733639E+02      0.1515785197E+02
          0                 5           2             7    6     1      -0.2391883622E+00       7    6    1        -0.1352915096E+02      0.1352935675E+02
          0                 6           2             7    6     1       0.2331346296E+00       7    6    1         0.1330699838E+02      0.1330717383E+02
          0                 7           2             7    6     1      -0.2274418358E+00       7    6    1        -0.1310085518E+02      0.1310101322E+02
          0                 8           2             7    6     1       0.2230617281E+00       7    6    1         0.1296545644E+02      0.1296560525E+02
          0                 9           2             7    6     1      -0.2456670994E-02       7    6    1        -0.1455253187E+00      0.1576718585E+00
          0                10           2             7    6     1      -0.5360567936E-03       7    6    1        -0.3171978681E-01      0.3385040171E-01
                                                   Max.-Head-Change                         Max.-Flux-Residual
  Residual-Control   Outer-Iter.   Inner-Iter.     Column Row Layer    Maximum-Head-Change  Column Row Layer    Maximum-Flux-Residual          L2-NORM 
          0                11           2             7    6     1      -0.1171098473E-03       7    6    1        -0.6922505814E-02      0.7294093938E-02
          0                12           1             7    6     1      -0.2561347493E-04       7    6    1        -0.1512554644E-02      0.1579260083E-02
          0                13           1             7    6     1      -0.5608020267E-05       7    6    1        -0.3308621338E-03      0.3453592602E-03

    ------------------------------------------------
       NWT REQUIRED           13 OUTER ITERATIONS 
       AND A TOTAL OF         24 INNER ITERATIONS.
    ------------------------------------------------

 NO OUTPUT CONTROL FOR STRESS PERIOD    9   TIME STEP   11
 
 SOLVING FOR HEAD 
                                                   Max.-Head-Change                         Max.-Flux-Residual
  Residual-Control   Outer-Iter.   Inner-Iter.     Column Row Layer    Maximum-Head-Change  Column Row Layer    Maximum-Flux-Residual          L2-NORM 
          0                 1           2             7    6     1      -0.2294955447E+00       7    6    1        -0.1252575013E+02      0.1263617171E+02
     PET DIFF ERROR     6    7   -0.2142120488E-07    0.6500000094E-07
     PET DIFF ERROR     6    8   -0.2142120487E-07    0.6500000094E-07
          0                 2           2             7    6     1       0.2514377945E+00       7    6    1         0.1385882649E+02      0.1386525466E+02
          0                 3           2             7    6     1      -0.2730086247E+00       7    6    1        -0.1516330822E+02      0.1516432814E+02
     PET DIFF ERROR     6    7   -0.2048753927E-07    0.6500000094E-07
     PET DIFF ERROR     6    8   -0.2048753927E-07    0.6500000094E-07
          0                 4           2             7    6     1       0.2699879971E+00       7    6    1         0.1515723142E+02      0.1515774678E+02
          0                 5           2             7    6     1      -0.2391874980E+00       7    6    1        -0.1352911229E+02      0.1352931799E+02
          0                 6           2             7    6     1       0.2331337738E+00       7    6    1         0.1330695921E+02      0.1330713464E+02
          0                 7           2             7    6     1      -0.2274410442E+00       7    6    1        -0.1310081942E+02      0.1310097745E+02
          0                 8           2             7    6     1       0.2230609540E+00       7    6    1         0.1296542088E+02      0.1296556969E+02
          0                 9           2             7    6     1      -0.2456068910E-02       7    6    1        -0.1454901536E+00      0.1576396708E+00
          0                10           2             7    6     1      -0.5359233208E-03       7    6    1        -0.3171199417E-01      0.3384319982E-01
                                                   Max.-Head-Change                         Max.-Flux-Residual
  Residual-Control   Outer-Iter.   Inner-Iter.     Column Row Layer    Maximum-Head-Change  Column Row Layer    Maximum-Flux-Residual          L2-NORM 
          0                11           2             7    6     1      -0.1170802471E-03       7    6    1        -0.6920778254E-02      0.7292475981E-02
          0                12           1             7    6     1      -0.2560690778E-04       7    6    1        -0.1512171508E-02      0.1578891306E-02
          0                13           1             7    6     1      -0.5606562616E-05       7    6    1        -0.3307771408E-03      0.3452711988E-03

    ------------------------------------------------
       NWT REQUIRED           13 OUTER ITERATIONS 
       AND A TOTAL OF         24 INNER ITERATIONS.
    ------------------------------------------------

 NO OUTPUT CONTROL FOR STRESS PERIOD    9   TIME STEP   12
 
 SOLVING FOR HEAD 
                                                   Max.-Head-Change                         Max.-Flux-Residual
  Residual-Control   Outer-Iter.   Inner-Iter.     Column Row Layer    Maximum-Head-Change  Column Row Layer    Maximum-Flux-Residual          L2-NORM 
          0                 1           2             7    6     1      -0.2294929056E+00       7    6    1        -0.1252562117E+02      0.1263554971E+02
     PET DIFF ERROR     6    7   -0.2142181155E-07    0.6500000094E-07
     PET DIFF ERROR     6    8   -0.2142181154E-07    0.6500000094E-07
          0                 2           2             7    6     1       0.2514374834E+00       7    6    1         0.1385881854E+02      0.1386523479E+02
          0                 3           2             7    6     1      -0.2730066809E+00       7    6    1        -0.1516321187E+02      0.1516422972E+02
     PET DIFF ERROR     6    7   -0.2048694286E-07    0.6500000094E-07
     PET DIFF ERROR     6    8   -0.2048694286E-07    0.6500000094E-07
          0                 4           2             7    6     1       0.2699859497E+00       7    6    1         0.1515712758E+02      0.1515764274E+02
          0                 5           2             7    6     1      -0.2391866537E+00       7    6    1        -0.1352907475E+02      0.1352928037E+02
          0                 6           2             7    6     1       0.2331329373E+00       7    6    1         0.1330692115E+02      0.1330709656E+02
          0                 7           2             7    6     1      -0.2274403046E+00       7    6    1        -0.1310078666E+02      0.1310094469E+02
          0                 8           2             7    6     1       0.2230602327E+00       7    6    1         0.1296538840E+02      0.1296553721E+02
          0                 9           2             7    6     1      -0.2455502430E-02       7    6    1        -0.1454570771E+00      0.1576094181E+00
          0                10           2             7    6     1      -0.5357977042E-03       7    6    1        -0.3170466211E-01      0.3383642731E-01
                                                   Max.-Head-Change                         Max.-Flux-Residual
  Residual-Control   Outer-Iter.   Inner-Iter.     Column Row Layer    Maximum-Head-Change  Column Row Layer    Maximum-Flux-Residual          L2-NORM 
          0                11           2             7    6     1      -0.1170523815E-03       7    6    1        -0.6919152335E-02      0.7290953461E-02
          0                12           1             7    6     1      -0.2560072399E-04       7    6    1        -0.1511810820E-02      0.1578543405E-02
          0                13           1             7    6     1      -0.5605190197E-05       7    6    1        -0.3306971059E-03      0.3451858969E-03

    ------------------------------------------------
       NWT REQUIRED           13 OUTER ITERATIONS 
       AND A TOTAL OF         24 INNER ITERATIONS.
    ------------------------------------------------

 NO OUTPUT CONTROL FOR STRESS PERIOD    9   TIME STEP   13
 
 SOLVING FOR HEAD 
                                                   Max.-Head-Change                         Max.-Flux-Residual
  Residual-Control   Outer-Iter.   Inner-Iter.     Column Row Layer    Maximum-Head-Change  Column Row Layer    Maximum-Flux-Residual          L2-NORM 
          0                 1           2             7    6     1      -0.2294901749E+00       7    6    1        -0.1252548719E+02      0.1263496779E+02
     PET DIFF ERROR     6    7   -0.2142241801E-07    0.6500000094E-07
     PET DIFF ERROR     6    8   -0.2142241800E-07    0.6500000094E-07
          0                 2           2             7    6     1       0.2514371631E+00       7    6    1         0.1385881009E+02      0.1386521476E+02
          0                 3           2             7    6     1      -0.2730047151E+00       7    6    1        -0.1516311429E+02      0.1516412997E+02
     PET DIFF ERROR     6    7   -0.2048633761E-07    0.6500000094E-07
     PET DIFF ERROR     6    8   -0.2048633761E-07    0.6500000094E-07
          0                 4           2             7    6     1       0.2699838795E+00       7    6    1         0.1515702247E+02      0.1515753723E+02
          0                 5           2             7    6     1      -0.2391857872E+00       7    6    1        -0.1352903596E+02      0.1352924143E+02
          0                 6           2             7    6     1       0.2331320790E+00       7    6    1         0.1330688184E+02      0.1330705723E+02
          0                 7           2             7    6     1      -0.2274395271E+00       7    6    1        -0.1310075171E+02      0.1310090975E+02
          0                 8           2             7    6     1       0.2230594732E+00       7    6    1         0.1296535369E+02      0.1296550251E+02
          0                 9           2             7    6     1      -0.2454914773E-02       7    6    1        -0.1454227583E+00      0.1575780161E+00
          0                10           2             7    6     1      -0.5356674150E-03       7    6    1        -0.3169705611E-01      0.3382939980E-01
                                                   Max.-Head-Change                         Max.-Flux-Residual
  Residual-Control   Outer-Iter.   Inner-Iter.     Column Row Layer    Maximum-Head-Change  Column Row Layer    Maximum-Flux-Residual          L2-NORM 
          0                11           2             7    6     1      -0.1170234837E-03       7    6    1        -0.6917465958E-02      0.7289374231E-02
          0                12           1             7    6     1      -0.2559431299E-04       7    6    1        -0.1511436799E-02      0.1578182970E-02
          0                13           1             7    6     1      -0.5603767081E-05       7    6    1        -0.3306141061E-03      0.3450985446E-03

    ------------------------------------------------
       NWT REQUIRED           13 OUTER ITERATIONS 
       AND A TOTAL OF         24 INNER ITERATIONS.
    ------------------------------------------------

 NO OUTPUT CONTROL FOR STRESS PERIOD    9   TIME STEP   14
 
 SOLVING FOR HEAD 
                                                   Max.-Head-Change                         Max.-Flux-Residual
  Residual-Control   Outer-Iter.   Inner-Iter.     Column Row Layer    Maximum-Head-Change  Column Row Layer    Maximum-Flux-Residual          L2-NORM 
          0                 1           2             7    6     1      -0.2294874778E+00       7    6    1        -0.1252535501E+02      0.1263440066E+02
     PET DIFF ERROR     6    7   -0.2142302431E-07    0.6500000094E-07
     PET DIFF ERROR     6    8   -0.2142302429E-07    0.6500000094E-07
          0                 2           2             7    6     1       0.2514368459E+00       7    6    1         0.1385880182E+02      0.1386519431E+02
          0                 3           2             7    6     1      -0.2730027574E+00       7    6    1        -0.1516301717E+02      0.1516403072E+02
     PET DIFF ERROR     6    7   -0.2048573767E-07    0.6500000094E-07
     PET DIFF ERROR     6    8   -0.2048573767E-07    0.6500000094E-07
          0                 4           2             7    6     1       0.2699818178E+00       7    6    1         0.1515691783E+02      0.1515743236E+02
          0                 5           2             7    6     1      -0.2391849289E+00       7    6    1        -0.1352899763E+02      0.1352920302E+02
          0                 6           2             7    6     1       0.2331312287E+00       7    6    1         0.1330684300E+02      0.1330701837E+02
          0                 7           2             7    6     1      -0.2274387740E+00       7    6    1        -0.1310071818E+02      0.1310087622E+02
          0                 8           2             7    6     1       0.2230587386E+00       7    6    1         0.1296532044E+02      0.1296546926E+02
          0                 9           2             7    6     1      -0.2454335260E-02       7    6    1        -0.1453889172E+00      0.1575470591E+00
          0                10           2             7    6     1      -0.5355389219E-03       7    6    1        -0.3168955544E-01      0.3382247086E-01
                                                   Max.-Head-Change                         Max.-Flux-Residual
  Residual-Control   Outer-Iter.   Inner-Iter.     Column Row Layer    Maximum-Head-Change  Column Row Layer    Maximum-Flux-Residual          L2-NORM 
          0                11           2             7    6     1      -0.1169949831E-03       7    6    1        -0.6915802835E-02      0.7287816926E-02
          0                12           1             7    6     1      -0.2558798862E-04       7    6    1        -0.1511067894E-02      0.1577827502E-02
          0                13           1             7    6     1      -0.5602363731E-05       7    6    1        -0.3305322666E-03      0.3450125677E-03

    ------------------------------------------------
       NWT REQUIRED           13 OUTER ITERATIONS 
       AND A TOTAL OF         24 INNER ITERATIONS.
    ------------------------------------------------

 OUTPUT CONTROL FOR STRESS PERIOD    9   TIME STEP   15
    PRINT BUDGET
    PRINT HEAD FOR ALL LAYERS
    SAVE HEAD FOR ALL LAYERS
    SAVE BUDGET
 UBUDSV SAVING "         STORAGE" ON UNIT102 AT TIME STEP    15, STRESS PERIOD    9
 UBUDSV SAVING "   CONSTANT HEAD" ON UNIT102 AT TIME STEP    15, STRESS PERIOD    9
 UBUDSV SAVING "FLOW RIGHT FACE " ON UNIT102 AT TIME STEP    15, STRESS PERIOD    9
 UBUDSV SAVING "FLOW FRONT FACE " ON UNIT102 AT TIME STEP    15, STRESS PERIOD    9

  HEAD DEP BOUNDS   PERIOD    9   STEP    15
 BOUNDARY      1   LAYER   1   ROW    13   COL     1   RATE   -0.269338    
 BOUNDARY      2   LAYER   1   ROW    14   COL     9   RATE    0.281793    



 STREAM LISTING     PERIOD      9   STEP       15

 LAYER ROW COL. STREAM  RCH.  FLOW INTO     FLOW TO   FLOW OUT OF   OVRLND.     DIRECT     STREAM       STREAM     STREAM     STREAM   STREAMBED  STREAMBED
                SEG.NO.  NO.  STRM. RCH.    AQUIFER    STRM. RCH.    RUNOFF     PRECIP       ET          HEAD       DEPTH      WIDTH   CONDCTNC.   GRADIENT

   1    1    1     1     1    2.1000E+01  2.2592E-01   2.0774E+01  0.000E+00  0.000E+00  0.000E+00  1.09416E+03  1.115E+00  1.220E+01  5.490E-02  1.372E+00
   1    2    2     1     2    2.0774E+01  3.4916E-01   2.0425E+01  0.000E+00  0.000E+00  0.000E+00  1.08917E+03  1.110E+00  1.214E+01  8.495E-02  1.370E+00
   1    3    3     1     3    2.0425E+01  2.9709E-01   2.0128E+01  0.000E+00  0.000E+00  0.000E+00  1.08352E+03  1.105E+00  1.206E+01  7.238E-02  1.368E+00
   1    3    4     1     4    2.0128E+01  2.7299E-01   1.9855E+01  0.000E+00  0.000E+00  0.000E+00  1.07851E+03  1.100E+00  1.200E+01  6.659E-02  1.367E+00
   1    4    5     2     1    1.7855E+01  0.0000E+00   1.7855E+01  0.000E+00  0.000E+00  0.000E+00  1.07292E+03  9.867E-01  1.200E+01  0.000E+00  1.329E+00
   1    5    6     2     2    1.7855E+01  0.0000E+00   1.7855E+01  0.000E+00  0.000E+00  0.000E+00  1.06750E+03  9.867E-01  1.200E+01  0.000E+00  1.329E+00
   1    6    6     2     3    1.7855E+01  0.0000E+00   1.7855E+01  0.000E+00  0.000E+00  0.000E+00  1.06278E+03  9.867E-01  1.200E+01  0.000E+00  1.329E+00
   1    7    6     2     4    1.7855E+01  0.0000E+00   1.7855E+01  0.000E+00  0.000E+00  0.000E+00  1.05806E+03  9.867E-01  1.200E+01  0.000E+00  1.329E+00
   1    8    6     2     5    1.7855E+01  0.0000E+00   1.7855E+01  0.000E+00  0.000E+00  0.000E+00  1.05335E+03  9.867E-01  1.200E+01  0.000E+00  1.329E+00
   1    3    5     3     1    2.0000E+00  2.8252E-01   1.7175E+00  0.000E+00  0.000E+00  0.000E+00  1.07555E+03  1.909E+00  9.636E+00  7.227E-02  1.955E+00
   1    3    6     3     2    1.7175E+00  2.4905E-01   1.4684E+00  0.000E+00  0.000E+00  0.000E+00  1.07264E+03  1.727E+00  8.909E+00  6.682E-02  1.864E+00
   1    3    7     3     3    1.4684E+00  1.9718E-01   1.2712E+00  0.000E+00  0.000E+00  0.000E+00  1.06987E+03  1.555E+00  8.218E+00  5.547E-02  1.777E+00
   1    4    8     3     4    1.2712E+00  2.2567E-01   1.0456E+00  0.000E+00  0.000E+00  0.000E+00  1.06682E+03  1.364E+00  7.455E+00  6.709E-02  1.682E+00
   1    5    8     3     5    1.0456E+00  1.5790E-01   8.8768E-01  0.000E+00  0.000E+00  0.000E+00  1.06362E+03  1.164E+00  6.655E+00  4.991E-02  1.582E+00
   1    6    8     3     6    8.8768E-01  5.5980E-02   8.3170E-01  0.000E+00  0.000E+00  0.000E+00  1.06158E+03  1.036E+00  6.145E+00  1.844E-02  1.518E+00
   1    5   10     4     1    1.0000E+01  0.0000E+00   1.0000E+01  0.000E+00  0.000E+00  0.000E+00  1.07837E+03  6.385E-01  1.000E+01  0.000E+00  1.213E+00
   1    5    9     4     2    1.0000E+01  0.0000E+00   1.0000E+01  0.000E+00  0.000E+00  0.000E+00  1.07155E+03  6.385E-01  1.000E+01  0.000E+00  1.213E+00
   1    6    8     4     3    1.0000E+01  0.0000E+00   1.0000E+01  0.000E+00  0.000E+00  0.000E+00  1.06382E+03  6.385E-01  1.000E+01  0.000E+00  1.213E+00
   1    6    8     5     1    1.0832E+01  2.3262E-01   1.0599E+01  0.000E+00  0.000E+00  0.000E+00  1.05869E+03  6.881E-01  1.577E+01  6.307E-02  1.229E+00
   1    7    7     5     2    1.0599E+01  2.8607E-01   1.0313E+01  0.000E+00  0.000E+00  0.000E+00  1.05418E+03  6.822E-01  1.554E+01  7.769E-02  1.227E+00
   1    8    7     5     3    1.0313E+01  1.9716E-01   1.0116E+01  0.000E+00  0.000E+00  0.000E+00  1.04993E+03  6.766E-01  1.532E+01  5.363E-02  1.226E+00
   1    8    6     5     4    1.0116E+01  1.3929E-01   9.9766E+00  0.000E+00  0.000E+00  0.000E+00  1.04692E+03  6.727E-01  1.517E+01  3.792E-02  1.224E+00
   1    9    6     6     1    2.4586E+01  0.0000E+00   2.4586E+01  0.000E+00  0.000E+00  0.000E+00  1.04394E+03  1.209E+00  1.200E+01  0.000E+00  1.403E+00
   1   10    7     6     2    2.4586E+01  0.0000E+00   2.4586E+01  0.000E+00  0.000E+00  0.000E+00  1.03939E+03  1.209E+00  1.200E+01  0.000E+00  1.403E+00
   1   11    7     6     3    2.4586E+01  0.0000E+00   2.4586E+01  0.000E+00  0.000E+00  0.000E+00  1.03485E+03  1.209E+00  1.200E+01  0.000E+00  1.403E+00
   1   12    7     6     4    2.4586E+01  0.0000E+00   2.4586E+01  0.000E+00  0.000E+00  0.000E+00  1.03030E+03  1.209E+00  1.200E+01  0.000E+00  1.403E+00
   1   13    7     6     5    2.4586E+01  0.0000E+00   2.4586E+01  0.000E+00  0.000E+00  0.000E+00  1.02712E+03  1.209E+00  1.200E+01  0.000E+00  2.143E-01
   1   14    9     7     1    1.5000E+02  1.2775E+00   1.4872E+02  0.000E+00  0.000E+00  0.000E+00  1.03987E+03  2.288E+00  5.530E+01  5.593E-01  7.614E-01
   1   13    8     7     2    1.4872E+02  1.9322E+00   1.4679E+02  0.000E+00  0.000E+00  0.000E+00  1.03478E+03  2.279E+00  5.526E+01  6.148E-01  1.048E+00
   1   13    7     7     3    1.4679E+02  1.7945E+00   1.4500E+02  0.000E+00  0.000E+00  0.000E+00  1.02969E+03  2.269E+00  5.521E+01  5.584E-01  1.071E+00
   1   13    6     8     1    1.6958E+02  1.3574E+00   1.6822E+02  0.000E+00  0.000E+00  0.000E+00  1.02482E+03  2.945E+00  4.270E+01  4.352E-01  1.040E+00
   1   13    5     8     2    1.6822E+02  6.9447E-01   1.6753E+02  0.000E+00  0.000E+00  0.000E+00  1.01856E+03  2.938E+00  4.261E+01  4.342E-01  5.332E-01
   1   13    4     8     3    1.6753E+02 -3.5121E-01   1.6788E+02  0.000E+00  0.000E+00  0.000E+00  1.01231E+03  2.937E+00  4.259E+01  4.340E+00 -2.697E-02
   1   13    3     8     4    1.6788E+02 -2.1107E+00   1.6999E+02  0.000E+00  0.000E+00  0.000E+00  1.00607E+03  2.945E+00  4.271E+01  4.352E+00 -1.617E-01
   1   13    2     8     5    1.6999E+02 -1.0831E+00   1.7108E+02  0.000E+00  0.000E+00  0.000E+00  9.99831E+02  2.956E+00  4.286E+01  4.367E+00 -8.266E-02
   1   13    1     8     6    1.7108E+02 -6.6030E-01   1.7174E+02  0.000E+00  0.000E+00  0.000E+00  9.94836E+02  2.961E+00  4.294E+01  2.625E+00 -8.384E-02
   1    6    8     9     1    3.2450E+00  0.0000E+00   3.2450E+00  0.000E+00  0.000E+00  0.000E+00  1.07877E+03  2.743E-01  4.000E+00  0.000E+00  1.091E+00



 UBDSV3 SAVING "     NETRECHARGE" ON UNIT 100 AT TIME STEP    15, STRESS PERIOD   9
 UBDSV3 SAVING "    NETDISCHARGE" ON UNIT 101 AT TIME STEP    15, STRESS PERIOD   9
 UBDSV3 SAVING "           GW ET" ON UNIT  61 AT TIME STEP    15, STRESS PERIOD   9
 UBDSV3 SAVING "    UZF RECHARGE" ON UNIT  61 AT TIME STEP    15, STRESS PERIOD   9
 UBDSV3 SAVING " SURFACE LEAKAGE" ON UNIT  61 AT TIME STEP    15, STRESS PERIOD   9
 UBDSV3 SAVING "       HORT+DUNN" ON UNIT  61 AT TIME STEP    15, STRESS PERIOD   9
 UBDSV3 SAVING "  STORAGE CHANGE" ON UNIT  61 AT TIME STEP    15, STRESS PERIOD   9


UNSATURATED ZONE PACKAGE VOLUMETRIC BUDGET FOR  TIME STEP    15 STRESS PERIOD    9
  ------------------------------------------------------------------------------



     CUMULATIVE VOLUMES      L**3       RATES FOR THIS TIME STEP      L**3/T
     ------------------                 ------------------------

           IN:                                      IN:
           ---                                      ---
        INFILTRATION =    30263376.4051          INFILTRATION =           4.0925

          OUT:                                     OUT:
          ----                                     ----
              UZF ET =   558314113.0354                UZF ET =           4.0925
        UZF RECHARGE =   531873164.3419          UZF RECHARGE =          23.9792

            IN - OUT = -1059923900.9723              IN - OUT =         -23.9792

          STORAGE:                                 STORAGE:
          --------                                 --------
      STORAGE CHANGE = -1059916171.1219        STORAGE CHANGE =         -23.9792

 PERCENT DISCREPANCY IS DIFFERENCE BETWEEN IN-OUT MINUS CHANGE IN STORAGE
 DIVIDED BY THE AVERAGE OF IN AND OUT TIMES 100

 PERCENT DISCREPANCY =          -0.00     PERCENT DISCREPANCY =           0.00






1
              HEAD IN LAYER   1 AT END OF TIME STEP    15 IN STRESS PERIOD    9
  -----------------------------------------------------------------------------

           1       2       3       4       5       6       7       8       9      10
 ...................................................................................
   1  1023.13 1022.17 6999.00 6999.00 6999.00 6999.00 6999.00 6999.00 6999.00 6999.00
   2  1023.10 1022.79 1022.35 6999.00 6999.00 1023.57 1023.69 1023.61 6999.00 6999.00
   3  6999.00 1022.71 1022.45 1022.33 1022.85 1023.36 1023.76 1023.60 6999.00 6999.00
   4  1023.02 1022.61 1022.16 1021.77 1021.67 1021.73 1022.34 1023.34 1022.92 6999.00
   5  1022.92 1022.38 1021.82 1021.38 1021.35 1021.41 1021.56 1021.83 1021.77 1021.65
   6  1022.76 1022.13 1021.52 1021.09 1021.09 1021.21 1021.44 1021.76 1022.16 1022.71
   7  1022.59 1021.77 1021.18 1020.79 1020.83 1021.03 1021.38 1021.59 1022.69 6999.00
   8  6999.00 1021.12 1020.70 1020.40 1020.52 1020.83 1021.21 1022.00 1023.37 6999.00
   9  6999.00 1019.97 1019.86 1019.81 1020.07 1020.53 1021.03 1022.37 1024.25 6999.00
  10  6999.00 1018.13 1018.43 1018.92 1019.53 1020.37 1021.16 1022.96 1025.27 1025.99
  11  6999.00 1014.69 1015.61 1017.47 1018.84 1020.40 1021.82 1024.43 1027.38 6999.00
  12  1002.72 1008.00 1011.53 1015.02 1017.91 1020.77 1023.23 1027.55 1031.29 6999.00
  13   995.09 1000.08 1006.56 1012.39 1016.96 1021.70 1026.48 1031.64 1034.76 6999.00
  14  6999.00 1007.21 1009.89 1014.30 1018.70 1023.07 1028.00 1033.53 1037.58 6999.00
  15  6999.00 6999.00 1014.00 1016.58 1019.84 1022.67 6999.00 6999.00 6999.00 6999.00

 HEAD WILL BE SAVED ON UNIT   62 AT END OF TIME STEP   15, STRESS PERIOD    9
1
  VOLUMETRIC BUDGET FOR ENTIRE MODEL AT END OF TIME STEP   15, STRESS PERIOD   9
  ------------------------------------------------------------------------------

     CUMULATIVE VOLUMES      L**3       RATES FOR THIS TIME STEP      L**3/T
     ------------------                 ------------------------

           IN:                                      IN:
           ---                                      ---
             STORAGE =    25931920.0000               STORAGE =           1.2375
       CONSTANT HEAD =           0.0000         CONSTANT HEAD =           0.0000
               WELLS =           0.0000                 WELLS =           0.0000
     HEAD DEP BOUNDS =     6394816.0000       HEAD DEP BOUNDS =           0.2818
      STREAM LEAKAGE =   236031296.0000        STREAM LEAKAGE =          10.2247
        UZF RECHARGE =   531873152.0000          UZF RECHARGE =          23.9792
               GW ET =           0.0000                 GW ET =           0.0000
     SURFACE LEAKAGE =           0.0000       SURFACE LEAKAGE =           0.0000

            TOTAL IN =   800231168.0000              TOTAL IN =          35.7231

          OUT:                                     OUT:
          ----                                     ----
             STORAGE =   563223872.0000               STORAGE =          22.5696
       CONSTANT HEAD =           0.0000         CONSTANT HEAD =           0.0000
               WELLS =           0.0000                 WELLS =           0.0000
     HEAD DEP BOUNDS =     6455456.0000       HEAD DEP BOUNDS =           0.2693
      STREAM LEAKAGE =   176568288.0000        STREAM LEAKAGE =           4.2053
        UZF RECHARGE =           0.0000          UZF RECHARGE =           0.0000
               GW ET =    53943680.0000                 GW ET =           8.6788
     SURFACE LEAKAGE =           0.0000       SURFACE LEAKAGE =           0.0000

           TOTAL OUT =   800191360.0000             TOTAL OUT =          35.7230

            IN - OUT =       39808.0000              IN - OUT =       1.3351E-04

 PERCENT DISCREPANCY =           0.00     PERCENT DISCREPANCY =           0.00






         TIME SUMMARY AT END OF TIME STEP   15 IN STRESS PERIOD    9
                    SECONDS     MINUTES      HOURS       DAYS        YEARS
                    -----------------------------------------------------------
   TIME STEP LENGTH  87600.      1460.0      24.333      1.0139     2.77588E-03
 STRESS PERIOD TIME 1.31400E+06  21900.      365.00      15.208     4.16381E-02
         TOTAL TIME 2.23380E+07 3.72300E+05  6205.0      258.54     0.70785    
1
 
 SOLVING FOR HEAD 
                                                   Max.-Head-Change                         Max.-Flux-Residual
  Residual-Control   Outer-Iter.   Inner-Iter.     Column Row Layer    Maximum-Head-Change  Column Row Layer    Maximum-Flux-Residual          L2-NORM 
          0                 1           2             7    6     1      -0.2294849333E+00       7    6    1        -0.1252523104E+02      0.1263387187E+02
     PET DIFF ERROR     6    7   -0.2142363034E-07    0.6500000094E-07
     PET DIFF ERROR     6    8   -0.2142363034E-07    0.6500000094E-07
          0                 2           2             7    6     1       0.2514365430E+00       7    6    1         0.1385879438E+02      0.1386517546E+02
          0                 3           2             7    6     1      -0.2730008537E+00       7    6    1        -0.1516292305E+02      0.1516393449E+02
     PET DIFF ERROR     6    7   -0.2048513804E-07    0.6500000094E-07
     PET DIFF ERROR     6    8   -0.2048513804E-07    0.6500000094E-07
          0                 4           2             7    6     1       0.2699798123E+00       7    6    1         0.1515681636E+02      0.1515733046E+02
          0                 5           2             7    6     1      -0.2391841086E+00       7    6    1        -0.1352896147E+02      0.1352916669E+02
          0                 6           2             7    6     1       0.2331304145E+00       7    6    1         0.1330680622E+02      0.1330698156E+02
          0                 7           2             7    6     1      -0.2274380401E+00       7    6    1        -0.1310068577E+02      0.1310084380E+02
          0                 8           2             7    6     1       0.2230580221E+00       7    6    1         0.1296528825E+02      0.1296543707E+02
          0                 9           2             7    6     1      -0.2453790158E-02       7    6    1        -0.1453570946E+00      0.1575179686E+00
          0                10           2             7    6     1      -0.5354180229E-03       7    6    1        -0.3168249992E-01      0.3381595644E-01
                                                   Max.-Head-Change                         Max.-Flux-Residual
  Residual-Control   Outer-Iter.   Inner-Iter.     Column Row Layer    Maximum-Head-Change  Column Row Layer    Maximum-Flux-Residual          L2-NORM 
          0                11           2             7    6     1      -0.1169681592E-03       7    6    1        -0.6914237945E-02      0.7286352059E-02
          0                12           1             7    6     1      -0.2558203541E-04       7    6    1        -0.1510720679E-02      0.1577492993E-02
          0                13           1             7    6     1      -0.5601041544E-05       7    6    1        -0.3304551865E-03      0.3449318794E-03

    ------------------------------------------------
       NWT REQUIRED           13 OUTER ITERATIONS 
       AND A TOTAL OF         24 INNER ITERATIONS.
    ------------------------------------------------

 NO OUTPUT CONTROL FOR STRESS PERIOD    9   TIME STEP   16
 
 SOLVING FOR HEAD 
                                                   Max.-Head-Change                         Max.-Flux-Residual
  Residual-Control   Outer-Iter.   Inner-Iter.     Column Row Layer    Maximum-Head-Change  Column Row Layer    Maximum-Flux-Residual          L2-NORM 
          0                 1           2             7    6     1      -0.2294822968E+00       7    6    1        -0.1252510197E+02      0.1263337550E+02
     PET DIFF ERROR     6    7   -0.2142423615E-07    0.6500000094E-07
     PET DIFF ERROR     6    8   -0.2142423615E-07    0.6500000094E-07
          0                 2           2             7    6     1       0.2514362307E+00       7    6    1         0.1385878643E+02      0.1386515649E+02
          0                 3           2             7    6     1      -0.2729989108E+00       7    6    1        -0.1516282676E+02      0.1516383623E+02
     PET DIFF ERROR     6    7   -0.2048454122E-07    0.6500000094E-07
     PET DIFF ERROR     6    8   -0.2048454122E-07    0.6500000094E-07
          0                 4           2             7    6     1       0.2699777658E+00       7    6    1         0.1515671258E+02      0.1515722645E+02
          0                 5           2             7    6     1      -0.2391832820E+00       7    6    1        -0.1352892494E+02      0.1352913009E+02
          0                 6           2             7    6     1       0.2331295965E+00       7    6    1         0.1330676923E+02      0.1330694456E+02
          0                 7           2             7    6     1      -0.2274373021E+00       7    6    1        -0.1310065311E+02      0.1310081115E+02
          0                 8           2             7    6     1       0.2230573013E+00       7    6    1         0.1296525582E+02      0.1296540464E+02
          0                 9           2             7    6     1      -0.2453224681E-02       7    6    1        -0.1453240769E+00      0.1574877764E+00
          0                10           2             7    6     1      -0.5352926273E-03       7    6    1        -0.3167518081E-01      0.3380919761E-01
                                                   Max.-Head-Change                         Max.-Flux-Residual
  Residual-Control   Outer-Iter.   Inner-Iter.     Column Row Layer    Maximum-Head-Change  Column Row Layer    Maximum-Flux-Residual          L2-NORM 
          0                11           2             7    6     1      -0.1169403420E-03       7    6    1        -0.6912614868E-02      0.7284832975E-02
          0                12           1             7    6     1      -0.2557586255E-04       7    6    1        -0.1510360622E-02      0.1577146389E-02
          0                13           1             7    6     1      -0.5599671217E-05       7    6    1        -0.3303752844E-03      0.3448479146E-03

    ------------------------------------------------
       NWT REQUIRED           13 OUTER ITERATIONS 
       AND A TOTAL OF         24 INNER ITERATIONS.
    ------------------------------------------------

 NO OUTPUT CONTROL FOR STRESS PERIOD    9   TIME STEP   17
 
 SOLVING FOR HEAD 
                                                   Max.-Head-Change                         Max.-Flux-Residual
  Residual-Control   Outer-Iter.   Inner-Iter.     Column Row Layer    Maximum-Head-Change  Column Row Layer    Maximum-Flux-Residual          L2-NORM 
          0                 1           2             7    6     1      -0.2294796930E+00       7    6    1        -0.1252497468E+02      0.1263289477E+02
     PET DIFF ERROR     6    7   -0.2142484174E-07    0.6500000094E-07
     PET DIFF ERROR     6    8   -0.2142484174E-07    0.6500000094E-07
          0                 2           2             7    6     1       0.2514359215E+00       7    6    1         0.1385877865E+02      0.1386513706E+02
          0                 3           2             7    6     1      -0.2729969929E+00       7    6    1        -0.1516273186E+02      0.1516373926E+02
     PET DIFF ERROR     6    7   -0.2048395303E-07    0.6500000094E-07
     PET DIFF ERROR     6    8   -0.2048395303E-07    0.6500000094E-07
          0                 4           2             7    6     1       0.2699757456E+00       7    6    1         0.1515661030E+02      0.1515712390E+02
          0                 5           2             7    6     1      -0.2391824475E+00       7    6    1        -0.1352888797E+02      0.1352909304E+02
          0                 6           2             7    6     1       0.2331287682E+00       7    6    1         0.1330673166E+02      0.1330690697E+02
          0                 7           2             7    6     1      -0.2274365710E+00       7    6    1        -0.1310062086E+02      0.1310077890E+02
          0                 8           2             7    6     1       0.2230565883E+00       7    6    1         0.1296522384E+02      0.1296537266E+02
          0                 9           2             7    6     1      -0.2452666675E-02       7    6    1        -0.1452914974E+00      0.1574579900E+00
          0                10           2             7    6     1      -0.5351688804E-03       7    6    1        -0.3166795837E-01      0.3380252835E-01
                                                   Max.-Head-Change                         Max.-Flux-Residual
  Residual-Control   Outer-Iter.   Inner-Iter.     Column Row Layer    Maximum-Head-Change  Column Row Layer    Maximum-Flux-Residual          L2-NORM 
          0                11           2             7    6     1      -0.1169128895E-03       7    6    1        -0.6911013145E-02      0.7283333373E-02
          0                12           1             7    6     1      -0.2556976980E-04       7    6    1        -0.1510005265E-02      0.1576803786E-02
          0                13           1             7    6     1      -0.5598318798E-05       7    6    1        -0.3302964244E-03      0.3447648925E-03

    ------------------------------------------------
       NWT REQUIRED           13 OUTER ITERATIONS 
       AND A TOTAL OF         24 INNER ITERATIONS.
    ------------------------------------------------

 NO OUTPUT CONTROL FOR STRESS PERIOD    9   TIME STEP   18
 
 SOLVING FOR HEAD 
                                                   Max.-Head-Change                         Max.-Flux-Residual
  Residual-Control   Outer-Iter.   Inner-Iter.     Column Row Layer    Maximum-Head-Change  Column Row Layer    Maximum-Flux-Residual          L2-NORM 
          0                 1           2             7    6     1      -0.2294771225E+00       7    6    1        -0.1252484908E+02      0.1263243561E+02
     PET DIFF ERROR     6    7   -0.2142544711E-07    0.6500000094E-07
     PET DIFF ERROR     6    8   -0.2142544711E-07    0.6500000094E-07
          0                 2           2             7    6     1       0.2514356147E+00       7    6    1         0.1385877104E+02      0.1386511849E+02
          0                 3           2             7    6     1      -0.2729950659E+00       7    6    1        -0.1516263645E+02      0.1516364192E+02
     PET DIFF ERROR     6    7   -0.2048334727E-07    0.6500000094E-07
     PET DIFF ERROR     6    8   -0.2048334727E-07    0.6500000094E-07
          0                 4           2             7    6     1       0.2699737154E+00       7    6    1         0.1515650745E+02      0.1515702081E+02
          0                 5           2             7    6     1      -0.2391816201E+00       7    6    1        -0.1352885141E+02      0.1352905641E+02
          0                 6           2             7    6     1       0.2331279484E+00       7    6    1         0.1330669457E+02      0.1330686987E+02
          0                 7           2             7    6     1      -0.2274358313E+00       7    6    1        -0.1310058812E+02      0.1310074615E+02
          0                 8           2             7    6     1       0.2230558660E+00       7    6    1         0.1296519132E+02      0.1296534015E+02
          0                 9           2             7    6     1      -0.2452116036E-02       7    6    1        -0.1452593500E+00      0.1574286036E+00
          0                10           2             7    6     1      -0.5350467592E-03       7    6    1        -0.3166083121E-01      0.3379594844E-01
                                                   Max.-Head-Change                         Max.-Flux-Residual
  Residual-Control   Outer-Iter.   Inner-Iter.     Column Row Layer    Maximum-Head-Change  Column Row Layer    Maximum-Flux-Residual          L2-NORM 
          0                11           2             7    6     1      -0.1168857957E-03       7    6    1        -0.6909432446E-02      0.7281854209E-02
          0                12           1             7    6     1      -0.2556375670E-04       7    6    1        -0.1509654564E-02      0.1576466215E-02
          0                13           1             7    6     1      -0.5596984052E-05       7    6    1        -0.3302185949E-03      0.3446833702E-03

    ------------------------------------------------
       NWT REQUIRED           13 OUTER ITERATIONS 
       AND A TOTAL OF         24 INNER ITERATIONS.
    ------------------------------------------------

 NO OUTPUT CONTROL FOR STRESS PERIOD    9   TIME STEP   19
 
 SOLVING FOR HEAD 
                                                   Max.-Head-Change                         Max.-Flux-Residual
  Residual-Control   Outer-Iter.   Inner-Iter.     Column Row Layer    Maximum-Head-Change  Column Row Layer    Maximum-Flux-Residual          L2-NORM 
          0                 1           2             7    6     1      -0.2294745864E+00       7    6    1        -0.1252472523E+02      0.1263199799E+02
     PET DIFF ERROR     6    7   -0.2142605228E-07    0.6500000094E-07
     PET DIFF ERROR     6    8   -0.2142605227E-07    0.6500000094E-07
          0                 2           2             7    6     1       0.2514353103E+00       7    6    1         0.1385876359E+02      0.1386510025E+02
          0                 3           2             7    6     1      -0.2729931469E+00       7    6    1        -0.1516254149E+02      0.1516354506E+02
     PET DIFF ERROR     6    7   -0.2048275015E-07    0.6500000094E-07
     PET DIFF ERROR     6    8   -0.2048275015E-07    0.6500000094E-07
          0                 4           2             7    6     1       0.2699716935E+00       7    6    1         0.1515640508E+02      0.1515691819E+02
          0                 5           2             7    6     1      -0.2391808008E+00       7    6    1        -0.1352881532E+02      0.1352902024E+02
          0                 6           2             7    6     1       0.2331271368E+00       7    6    1         0.1330665797E+02      0.1330683324E+02
          0                 7           2             7    6     1      -0.2274350997E+00       7    6    1        -0.1310055585E+02      0.1310071389E+02
          0                 8           2             7    6     1       0.2230551517E+00       7    6    1         0.1296515927E+02      0.1296530810E+02
          0                 9           2             7    6     1      -0.2451573351E-02       7    6    1        -0.1452276692E+00      0.1573996499E+00
          0                10           2             7    6     1      -0.5349263935E-03       7    6    1        -0.3165380695E-01      0.3378946486E-01
                                                   Max.-Head-Change                         Max.-Flux-Residual
  Residual-Control   Outer-Iter.   Inner-Iter.     Column Row Layer    Maximum-Head-Change  Column Row Layer    Maximum-Flux-Residual          L2-NORM 
          0                11           2             7    6     1      -0.1168590892E-03       7    6    1        -0.6907874442E-02      0.7280396380E-02
          0                12           1             7    6     1      -0.2555782930E-04       7    6    1        -0.1509308874E-02      0.1576133551E-02
          0                13           1             7    6     1      -0.5595667911E-05       7    6    1        -0.3301418615E-03      0.3446029848E-03

    ------------------------------------------------
       NWT REQUIRED           13 OUTER ITERATIONS 
       AND A TOTAL OF         24 INNER ITERATIONS.
    ------------------------------------------------

 NO OUTPUT CONTROL FOR STRESS PERIOD    9   TIME STEP   20
 
 SOLVING FOR HEAD 
                                                   Max.-Head-Change                         Max.-Flux-Residual
  Residual-Control   Outer-Iter.   Inner-Iter.     Column Row Layer    Maximum-Head-Change  Column Row Layer    Maximum-Flux-Residual          L2-NORM 
          0                 1           2             7    6     1      -0.2294720828E+00       7    6    1        -0.1252460317E+02      0.1263157766E+02
     PET DIFF ERROR     6    7   -0.2142665722E-07    0.6500000094E-07
     PET DIFF ERROR     6    8   -0.2142665722E-07    0.6500000094E-07
          0                 2           2             7    6     1       0.2514350088E+00       7    6    1         0.1385875630E+02      0.1386508187E+02
          0                 3           2             7    6     1      -0.2729912528E+00       7    6    1        -0.1516244791E+02      0.1516344954E+02
     PET DIFF ERROR     6    7   -0.2048215874E-07    0.6500000094E-07
     PET DIFF ERROR     6    8   -0.2048215874E-07    0.6500000094E-07
          0                 4           2             7    6     1       0.2699696978E+00       7    6    1         0.1515630418E+02      0.1515681704E+02
          0                 5           2             7    6     1      -0.2391800070E+00       7    6    1        -0.1352878067E+02      0.1352898552E+02
          0                 6           2             7    6     1       0.2331263505E+00       7    6    1         0.1330662280E+02      0.1330679807E+02
          0                 7           2             7    6     1      -0.2274343930E+00       7    6    1        -0.1310052501E+02      0.1310068305E+02
          0                 8           2             7    6     1       0.2230544617E+00       7    6    1         0.1296512864E+02      0.1296527748E+02
          0                 9           2             7    6     1      -0.2451038476E-02       7    6    1        -0.1451964466E+00      0.1573711225E+00
          0                10           2             7    6     1      -0.5348077506E-03       7    6    1        -0.3164688371E-01      0.3378307488E-01
                                                   Max.-Head-Change                         Max.-Flux-Residual
  Residual-Control   Outer-Iter.   Inner-Iter.     Column Row Layer    Maximum-Head-Change  Column Row Layer    Maximum-Flux-Residual          L2-NORM 
          0                11           2             7    6     1      -0.1168327634E-03       7    6    1        -0.6906338733E-02      0.7278959196E-02
          0                12           1             7    6     1      -0.2555198561E-04       7    6    1        -0.1508968099E-02      0.1575805123E-02
          0                13           1             7    6     1      -0.5594370258E-05       7    6    1        -0.3300662297E-03      0.3445234039E-03

    ------------------------------------------------
       NWT REQUIRED           13 OUTER ITERATIONS 
       AND A TOTAL OF         24 INNER ITERATIONS.
    ------------------------------------------------

 NO OUTPUT CONTROL FOR STRESS PERIOD    9   TIME STEP   21
 
 SOLVING FOR HEAD 
                                                   Max.-Head-Change                         Max.-Flux-Residual
  Residual-Control   Outer-Iter.   Inner-Iter.     Column Row Layer    Maximum-Head-Change  Column Row Layer    Maximum-Flux-Residual          L2-NORM 
          0                 1           2             7    6     1      -0.2294696112E+00       7    6    1        -0.1252448277E+02      0.1263119154E+02
     PET DIFF ERROR     6    7   -0.2142726195E-07    0.6500000094E-07
     PET DIFF ERROR     6    8   -0.2142726194E-07    0.6500000094E-07
          0                 2           2             7    6     1       0.2514347099E+00       7    6    1         0.1385874917E+02      0.1386506421E+02
          0                 3           2             7    6     1      -0.2729893490E+00       7    6    1        -0.1516235381E+02      0.1516335354E+02
     PET DIFF ERROR     6    7   -0.2048156146E-07    0.6500000094E-07
     PET DIFF ERROR     6    8   -0.2048156146E-07    0.6500000094E-07
          0                 4           2             7    6     1       0.2699676916E+00       7    6    1         0.1515620270E+02      0.1515671529E+02
          0                 5           2             7    6     1      -0.2391791863E+00       7    6    1        -0.1352874450E+02      0.1352894927E+02
          0                 6           2             7    6     1       0.2331255367E+00       7    6    1         0.1330658607E+02      0.1330676132E+02
          0                 7           2             7    6     1      -0.2274336760E+00       7    6    1        -0.1310049359E+02      0.1310065163E+02
          0                 8           2             7    6     1       0.2230537625E+00       7    6    1         0.1296509748E+02      0.1296524632E+02
          0                 9           2             7    6     1      -0.2450510600E-02       7    6    1        -0.1451656344E+00      0.1573429744E+00
          0                10           2             7    6     1      -0.5346906523E-03       7    6    1        -0.3164005102E-01      0.3377676963E-01
                                                   Max.-Head-Change                         Max.-Flux-Residual
  Residual-Control   Outer-Iter.   Inner-Iter.     Column Row Layer    Maximum-Head-Change  Column Row Layer    Maximum-Flux-Residual          L2-NORM 
          0                11           2             7    6     1      -0.1168067789E-03       7    6    1        -0.6904823022E-02      0.7277541052E-02
          0                12           1             7    6     1      -0.2554621751E-04       7    6    1        -0.1508631744E-02      0.1575481233E-02
          0                13           1             7    6     1      -0.5593089697E-05       7    6    1        -0.3299915593E-03      0.3444450155E-03

    ------------------------------------------------
       NWT REQUIRED           13 OUTER ITERATIONS 
       AND A TOTAL OF         24 INNER ITERATIONS.
    ------------------------------------------------

 NO OUTPUT CONTROL FOR STRESS PERIOD    9   TIME STEP   22
 
 SOLVING FOR HEAD 
                                                   Max.-Head-Change                         Max.-Flux-Residual
  Residual-Control   Outer-Iter.   Inner-Iter.     Column Row Layer    Maximum-Head-Change  Column Row Layer    Maximum-Flux-Residual          L2-NORM 
          0                 1           2             7    6     1      -0.2294671717E+00       7    6    1        -0.1252436404E+02      0.1263083168E+02
     PET DIFF ERROR     6    7   -0.2142786647E-07    0.6500000094E-07
     PET DIFF ERROR     6    8   -0.2142786646E-07    0.6500000094E-07
          0                 2           2             7    6     1       0.2514344133E+00       7    6    1         0.1385874220E+02      0.1386504728E+02
          0                 3           2             7    6     1      -0.2729874701E+00       7    6    1        -0.1516226108E+02      0.1516325898E+02
     PET DIFF ERROR     6    7   -0.2048096106E-07    0.6500000094E-07
     PET DIFF ERROR     6    8   -0.2048096106E-07    0.6500000094E-07
          0                 4           2             7    6     1       0.2699657116E+00       7    6    1         0.1515610269E+02      0.1515661504E+02
          0                 5           2             7    6     1      -0.2391784079E+00       7    6    1        -0.1352871072E+02      0.1352891543E+02
          0                 6           2             7    6     1       0.2331247658E+00       7    6    1         0.1330655180E+02      0.1330672704E+02
          0                 7           2             7    6     1      -0.2274329844E+00       7    6    1        -0.1310046364E+02      0.1310062168E+02
          0                 8           2             7    6     1       0.2230530874E+00       7    6    1         0.1296506773E+02      0.1296521656E+02
          0                 9           2             7    6     1      -0.2449990555E-02       7    6    1        -0.1451352817E+00      0.1573152541E+00
          0                10           2             7    6     1      -0.5345752819E-03       7    6    1        -0.3163331960E-01      0.3377055939E-01
                                                   Max.-Head-Change                         Max.-Flux-Residual
  Residual-Control   Outer-Iter.   Inner-Iter.     Column Row Layer    Maximum-Head-Change  Column Row Layer    Maximum-Flux-Residual          L2-NORM 
          0                11           2             7    6     1      -0.1167811750E-03       7    6    1        -0.6903329626E-02      0.7276144157E-02
          0                12           1             7    6     1      -0.2554053417E-04       7    6    1        -0.1508300330E-02      0.1575162283E-02
          0                13           1             7    6     1      -0.5591827276E-05       7    6    1        -0.3299179712E-03      0.3443685062E-03

    ------------------------------------------------
       NWT REQUIRED           13 OUTER ITERATIONS 
       AND A TOTAL OF         24 INNER ITERATIONS.
    ------------------------------------------------

 NO OUTPUT CONTROL FOR STRESS PERIOD    9   TIME STEP   23
 
 SOLVING FOR HEAD 
                                                   Max.-Head-Change                         Max.-Flux-Residual
  Residual-Control   Outer-Iter.   Inner-Iter.     Column Row Layer    Maximum-Head-Change  Column Row Layer    Maximum-Flux-Residual          L2-NORM 
          0                 1           2             7    6     1      -0.2294647645E+00       7    6    1        -0.1252424699E+02      0.1263046133E+02
     PET DIFF ERROR     6    7   -0.2142847078E-07    0.6500000094E-07
     PET DIFF ERROR     6    8   -0.2142847077E-07    0.6500000094E-07
          0                 2           2             7    6     1       0.2514341192E+00       7    6    1         0.1385873538E+02      0.1386503006E+02
          0                 3           2             7    6     1      -0.2729855815E+00       7    6    1        -0.1516216782E+02      0.1516316390E+02
     PET DIFF ERROR     6    7   -0.2048036336E-07    0.6500000094E-07
     PET DIFF ERROR     6    8   -0.2048036336E-07    0.6500000094E-07
          0                 4           2             7    6     1       0.2699637210E+00       7    6    1         0.1515600209E+02      0.1515651419E+02
          0                 5           2             7    6     1      -0.2391776193E+00       7    6    1        -0.1352867638E+02      0.1352888101E+02
          0                 6           2             7    6     1       0.2331239853E+00       7    6    1         0.1330651698E+02      0.1330669220E+02
          0                 7           2             7    6     1      -0.2274322833E+00       7    6    1        -0.1310043313E+02      0.1310059118E+02
          0                 8           2             7    6     1       0.2230524029E+00       7    6    1         0.1296503743E+02      0.1296518627E+02
          0                 9           2             7    6     1      -0.2449477547E-02       7    6    1        -0.1451053417E+00      0.1572879149E+00
          0                10           2             7    6     1      -0.5344614646E-03       7    6    1        -0.3162667924E-01      0.3376443379E-01
                                                   Max.-Head-Change                         Max.-Flux-Residual
  Residual-Control   Outer-Iter.   Inner-Iter.     Column Row Layer    Maximum-Head-Change  Column Row Layer    Maximum-Flux-Residual          L2-NORM 
          0                11           2             7    6     1      -0.1167559147E-03       7    6    1        -0.6901856349E-02      0.7274766087E-02
          0                12           1             7    6     1      -0.2553492559E-04       7    6    1        -0.1507973343E-02      0.1574847334E-02
          0                13           1             7    6     1      -0.5590581948E-05       7    6    1        -0.3298453955E-03      0.3442915605E-03

    ------------------------------------------------
       NWT REQUIRED           13 OUTER ITERATIONS 
       AND A TOTAL OF         24 INNER ITERATIONS.
    ------------------------------------------------

 NO OUTPUT CONTROL FOR STRESS PERIOD    9   TIME STEP   24
 
 SOLVING FOR HEAD 
                                                   Max.-Head-Change                         Max.-Flux-Residual
  Residual-Control   Outer-Iter.   Inner-Iter.     Column Row Layer    Maximum-Head-Change  Column Row Layer    Maximum-Flux-Residual          L2-NORM 
          0                 1           2             7    6     1      -0.2294623879E+00       7    6    1        -0.1252413160E+02      0.1263010675E+02
     PET DIFF ERROR     6    7   -0.2142907486E-07    0.6500000094E-07
     PET DIFF ERROR     6    8   -0.2142907485E-07    0.6500000094E-07
          0                 2           2             7    6     1       0.2514338276E+00       7    6    1         0.1385872870E+02      0.1386501314E+02
          0                 3           2             7    6     1      -0.2729837000E+00       7    6    1        -0.1516207495E+02      0.1516306924E+02
     PET DIFF ERROR     6    7   -0.2047976546E-07    0.6500000094E-07
     PET DIFF ERROR     6    8   -0.2047976546E-07    0.6500000094E-07
          0                 4           2             7    6     1       0.2699617377E+00       7    6    1         0.1515590191E+02      0.1515641375E+02
          0                 5           2             7    6     1      -0.2391768378E+00       7    6    1        -0.1352864244E+02      0.1352884701E+02
          0                 6           2             7    6     1       0.2331232121E+00       7    6    1         0.1330648258E+02      0.1330665779E+02
          0                 7           2             7    6     1      -0.2274315893E+00       7    6    1        -0.1310040305E+02      0.1310056109E+02
          0                 8           2             7    6     1       0.2230517254E+00       7    6    1         0.1296500754E+02      0.1296515639E+02
          0                 9           2             7    6     1      -0.2448971512E-02       7    6    1        -0.1450758107E+00      0.1572609551E+00
          0                10           2             7    6     1      -0.5343491855E-03       7    6    1        -0.3162012905E-01      0.3375839236E-01
                                                   Max.-Head-Change                         Max.-Flux-Residual
  Residual-Control   Outer-Iter.   Inner-Iter.     Column Row Layer    Maximum-Head-Change  Column Row Layer    Maximum-Flux-Residual          L2-NORM 
          0                11           2             7    6     1      -0.1167309941E-03       7    6    1        -0.6900402969E-02      0.7273406793E-02
          0                12           1             7    6     1      -0.2552939271E-04       7    6    1        -0.1507650749E-02      0.1574536734E-02
          0                13           1             7    6     1      -0.5589353247E-05       7    6    1        -0.3297737642E-03      0.3442163215E-03

    ------------------------------------------------
       NWT REQUIRED           13 OUTER ITERATIONS 
       AND A TOTAL OF         24 INNER ITERATIONS.
    ------------------------------------------------

 NO OUTPUT CONTROL FOR STRESS PERIOD    9   TIME STEP   25
 
 SOLVING FOR HEAD 
                                                   Max.-Head-Change                         Max.-Flux-Residual
  Residual-Control   Outer-Iter.   Inner-Iter.     Column Row Layer    Maximum-Head-Change  Column Row Layer    Maximum-Flux-Residual          L2-NORM 
          0                 1           2             7    6     1      -0.2294599246E+00       7    6    1        -0.1252401132E+02      0.1262975473E+02
     PET DIFF ERROR     6    7   -0.2142967874E-07    0.6500000094E-07
     PET DIFF ERROR     6    8   -0.2142967873E-07    0.6500000094E-07
          0                 2           2             7    6     1       0.2514335260E+00       7    6    1         0.1385872150E+02      0.1386499510E+02
          0                 3           2             7    6     1      -0.2729818146E+00       7    6    1        -0.1516198187E+02      0.1516297425E+02
     PET DIFF ERROR     6    7   -0.2047917608E-07    0.6500000094E-07
     PET DIFF ERROR     6    8   -0.2047917608E-07    0.6500000094E-07
          0                 4           2             7    6     1       0.2699597509E+00       7    6    1         0.1515580153E+02      0.1515631310E+02
          0                 5           2             7    6     1      -0.2391760360E+00       7    6    1        -0.1352860735E+02      0.1352881185E+02
          0                 6           2             7    6     1       0.2331224184E+00       7    6    1         0.1330644701E+02      0.1330662221E+02
          0                 7           2             7    6     1      -0.2274308752E+00       7    6    1        -0.1310037181E+02      0.1310052985E+02
          0                 8           2             7    6     1       0.2230510282E+00       7    6    1         0.1296497651E+02      0.1296512536E+02
          0                 9           2             7    6     1      -0.2448446053E-02       7    6    1        -0.1450451403E+00      0.1572329427E+00
          0                10           2             7    6     1      -0.5342326203E-03       7    6    1        -0.3161332762E-01      0.3375211702E-01
                                                   Max.-Head-Change                         Max.-Flux-Residual
  Residual-Control   Outer-Iter.   Inner-Iter.     Column Row Layer    Maximum-Head-Change  Column Row Layer    Maximum-Flux-Residual          L2-NORM 
          0                11           2             7    6     1      -0.1167051273E-03       7    6    1        -0.6898894161E-02      0.7271995201E-02
          0                12           1             7    6     1      -0.2552365054E-04       7    6    1        -0.1507315925E-02      0.1574214330E-02
          0                13           1             7    6     1      -0.5588078384E-05       7    6    1        -0.3296994516E-03      0.3441386372E-03

    ------------------------------------------------
       NWT REQUIRED           13 OUTER ITERATIONS 
       AND A TOTAL OF         24 INNER ITERATIONS.
    ------------------------------------------------

 NO OUTPUT CONTROL FOR STRESS PERIOD    9   TIME STEP   26
 
 SOLVING FOR HEAD 
                                                   Max.-Head-Change                         Max.-Flux-Residual
  Residual-Control   Outer-Iter.   Inner-Iter.     Column Row Layer    Maximum-Head-Change  Column Row Layer    Maximum-Flux-Residual          L2-NORM 
          0                 1           2             7    6     1      -0.2294576182E+00       7    6    1        -0.1252389960E+02      0.1262942401E+02
     PET DIFF ERROR     6    7   -0.2143028241E-07    0.6500000094E-07
     PET DIFF ERROR     6    8   -0.2143028239E-07    0.6500000094E-07
          0                 2           2             7    6     1       0.2514332394E+00       7    6    1         0.1385871514E+02      0.1386497806E+02
          0                 3           2             7    6     1      -0.2729799664E+00       7    6    1        -0.1516189086E+02      0.1516288137E+02
     PET DIFF ERROR     6    7   -0.2047858067E-07    0.6500000094E-07
     PET DIFF ERROR     6    8   -0.2047858067E-07    0.6500000094E-07
          0                 4           2             7    6     1       0.2699578027E+00       7    6    1         0.1515570333E+02      0.1515621461E+02
          0                 5           2             7    6     1      -0.2391752718E+00       7    6    1        -0.1352857440E+02      0.1352877882E+02
          0                 6           2             7    6     1       0.2331216620E+00       7    6    1         0.1330641358E+02      0.1330658876E+02
          0                 7           2             7    6     1      -0.2274302143E+00       7    6    1        -0.1310034364E+02      0.1310050169E+02
          0                 8           2             7    6     1       0.2230503842E+00       7    6    1         0.1296494857E+02      0.1296509742E+02
          0                 9           2             7    6     1      -0.2447956648E-02       7    6    1        -0.1450165850E+00      0.1572068883E+00
          0                10           2             7    6     1      -0.5341240108E-03       7    6    1        -0.3160699258E-01      0.3374627603E-01
                                                   Max.-Head-Change                         Max.-Flux-Residual
  Residual-Control   Outer-Iter.   Inner-Iter.     Column Row Layer    Maximum-Head-Change  Column Row Layer    Maximum-Flux-Residual          L2-NORM 
          0                11           2             7    6     1      -0.1166810167E-03       7    6    1        -0.6897488249E-02      0.7270680155E-02
          0                12           1             7    6     1      -0.2551829661E-04       7    6    1        -0.1507003817E-02      0.1573913363E-02
          0                13           1             7    6     1      -0.5586888752E-05       7    6    1        -0.3296301322E-03      0.3440704902E-03

    ------------------------------------------------
       NWT REQUIRED           13 OUTER ITERATIONS 
       AND A TOTAL OF         24 INNER ITERATIONS.
    ------------------------------------------------

 NO OUTPUT CONTROL FOR STRESS PERIOD    9   TIME STEP   27
 
 SOLVING FOR HEAD 
                                                   Max.-Head-Change                         Max.-Flux-Residual
  Residual-Control   Outer-Iter.   Inner-Iter.     Column Row Layer    Maximum-Head-Change  Column Row Layer    Maximum-Flux-Residual          L2-NORM 
          0                 1           2             7    6     1      -0.2294553409E+00       7    6    1        -0.1252378944E+02      0.1262911185E+02
     PET DIFF ERROR     6    7   -0.2143088588E-07    0.6500000094E-07
     PET DIFF ERROR     6    8   -0.2143088588E-07    0.6500000094E-07
          0                 2           2             7    6     1       0.2514329549E+00       7    6    1         0.1385870891E+02      0.1386496188E+02
          0                 3           2             7    6     1      -0.2729781076E+00       7    6    1        -0.1516179926E+02      0.1516278802E+02
     PET DIFF ERROR     6    7   -0.2047797358E-07    0.6500000094E-07
     PET DIFF ERROR     6    8   -0.2047797358E-07    0.6500000094E-07
          0                 4           2             7    6     1       0.2699558429E+00       7    6    1         0.1515560448E+02      0.1515611550E+02
          0                 5           2             7    6     1      -0.2391745302E+00       7    6    1        -0.1352854273E+02      0.1352874709E+02
          0                 6           2             7    6     1       0.2331209305E+00       7    6    1         0.1330638158E+02      0.1330655674E+02
          0                 7           2             7    6     1      -0.2274295445E+00       7    6    1        -0.1310031496E+02      0.1310047301E+02
          0                 8           2             7    6     1       0.2230497295E+00       7    6    1         0.1296492002E+02      0.1296506888E+02
          0                 9           2             7    6     1      -0.2447473472E-02       7    6    1        -0.1449883949E+00      0.1571811714E+00
          0                10           2             7    6     1      -0.5340167764E-03       7    6    1        -0.3160073812E-01      0.3374051037E-01
                                                   Max.-Head-Change                         Max.-Flux-Residual
  Residual-Control   Outer-Iter.   Inner-Iter.     Column Row Layer    Maximum-Head-Change  Column Row Layer    Maximum-Flux-Residual          L2-NORM 
          0                11           2             7    6     1      -0.1166572094E-03       7    6    1        -0.6896100119E-02      0.7269382156E-02
          0                12           1             7    6     1      -0.2551300977E-04       7    6    1        -0.1506695645E-02      0.1573616320E-02
          0                13           1             7    6     1      -0.5585714353E-05       7    6    1        -0.3295617000E-03      0.3439927299E-03

    ------------------------------------------------
       NWT REQUIRED           13 OUTER ITERATIONS 
       AND A TOTAL OF         24 INNER ITERATIONS.
    ------------------------------------------------

 NO OUTPUT CONTROL FOR STRESS PERIOD    9   TIME STEP   28
 
 SOLVING FOR HEAD 
                                                   Max.-Head-Change                         Max.-Flux-Residual
  Residual-Control   Outer-Iter.   Inner-Iter.     Column Row Layer    Maximum-Head-Change  Column Row Layer    Maximum-Flux-Residual          L2-NORM 
          0                 1           2             7    6     1      -0.2294529762E+00       7    6    1        -0.1252367430E+02      0.1262880706E+02
     PET DIFF ERROR     6    7   -0.2143148916E-07    0.6500000094E-07
     PET DIFF ERROR     6    8   -0.2143148917E-07    0.6500000094E-07
          0                 2           2             7    6     1       0.2514326604E+00       7    6    1         0.1385870215E+02      0.1386494539E+02
          0                 3           2             7    6     1      -0.2729762450E+00       7    6    1        -0.1516170745E+02      0.1516269448E+02
     PET DIFF ERROR     6    7   -0.2047737803E-07    0.6500000094E-07
     PET DIFF ERROR     6    8   -0.2047737803E-07    0.6500000094E-07
          0                 4           2             7    6     1       0.2699538798E+00       7    6    1         0.1515550544E+02      0.1515601620E+02
          0                 5           2             7    6     1      -0.2391737515E+00       7    6    1        -0.1352850896E+02      0.1352871325E+02
          0                 6           2             7    6     1       0.2331201608E+00       7    6    1         0.1330634739E+02      0.1330652254E+02
          0                 7           2             7    6     1      -0.2274288868E+00       7    6    1        -0.1310028698E+02      0.1310044503E+02
          0                 8           2             7    6     1       0.2230490893E+00       7    6    1         0.1296489232E+02      0.1296504118E+02
          0                 9           2             7    6     1      -0.2446971617E-02       7    6    1        -0.1449591094E+00      0.1571544467E+00
          0                10           2             7    6     1      -0.5339054192E-03       7    6    1        -0.3159424201E-01      0.3373452110E-01
                                                   Max.-Head-Change                         Max.-Flux-Residual
  Residual-Control   Outer-Iter.   Inner-Iter.     Column Row Layer    Maximum-Head-Change  Column Row Layer    Maximum-Flux-Residual          L2-NORM 
          0                11           2             7    6     1      -0.1166324919E-03       7    6    1        -0.6894658659E-02      0.7268034612E-02
          0                12           1             7    6     1      -0.2550752212E-04       7    6    1        -0.1506375691E-02      0.1573308557E-02
          0                13           1             7    6     1      -0.5584495187E-05       7    6    1        -0.3294906421E-03      0.3439183282E-03

    ------------------------------------------------
       NWT REQUIRED           13 OUTER ITERATIONS 
       AND A TOTAL OF         24 INNER ITERATIONS.
    ------------------------------------------------

 NO OUTPUT CONTROL FOR STRESS PERIOD    9   TIME STEP   29
 
 SOLVING FOR HEAD 
                                                   Max.-Head-Change                         Max.-Flux-Residual
  Residual-Control   Outer-Iter.   Inner-Iter.     Column Row Layer    Maximum-Head-Change  Column Row Layer    Maximum-Flux-Residual          L2-NORM 
          0                 1           2             7    6     1      -0.2294507683E+00       7    6    1        -0.1252356771E+02      0.1262851273E+02
     PET DIFF ERROR     6    7   -0.2143209225E-07    0.6500000094E-07
     PET DIFF ERROR     6    8   -0.2143209224E-07    0.6500000094E-07
          0                 2           2             7    6     1       0.2514323805E+00       7    6    1         0.1385869622E+02      0.1386492955E+02
          0                 3           2             7    6     1      -0.2729744196E+00       7    6    1        -0.1516161771E+02      0.1516260301E+02
     PET DIFF ERROR     6    7   -0.2047678529E-07    0.6500000094E-07
     PET DIFF ERROR     6    8   -0.2047678529E-07    0.6500000094E-07
          0                 4           2             7    6     1       0.2699519550E+00       7    6    1         0.1515540857E+02      0.1515591906E+02
          0                 5           2             7    6     1      -0.2391730272E+00       7    6    1        -0.1352847828E+02      0.1352868250E+02
          0                 6           2             7    6     1       0.2331194460E+00       7    6    1         0.1330631635E+02      0.1330649149E+02
          0                 7           2             7    6     1      -0.2274282334E+00       7    6    1        -0.1310025925E+02      0.1310041731E+02
          0                 8           2             7    6     1       0.2230484508E+00       7    6    1         0.1296486472E+02      0.1296501358E+02
          0                 9           2             7    6     1      -0.2446504537E-02       7    6    1        -0.1449318634E+00      0.1571296047E+00
          0                10           2             7    6     1      -0.5338017356E-03       7    6    1        -0.3158819573E-01      0.3372894955E-01
                                                   Max.-Head-Change                         Max.-Flux-Residual
  Residual-Control   Outer-Iter.   Inner-Iter.     Column Row Layer    Maximum-Head-Change  Column Row Layer    Maximum-Flux-Residual          L2-NORM 
          0                11           2             7    6     1      -0.1166094691E-03       7    6    1        -0.6893316478E-02      0.7266779864E-02
          0                12           1             7    6     1      -0.2550240819E-04       7    6    1        -0.1506077656E-02      0.1573021390E-02
          0                13           1             7    6     1      -0.5583359508E-05       7    6    1        -0.3294244505E-03      0.3438484842E-03

    ------------------------------------------------
       NWT REQUIRED           13 OUTER ITERATIONS 
       AND A TOTAL OF         24 INNER ITERATIONS.
    ------------------------------------------------

 NO OUTPUT CONTROL FOR STRESS PERIOD    9   TIME STEP   30



 STREAM LISTING     PERIOD      9   STEP       30

 LAYER ROW COL. STREAM  RCH.  FLOW INTO     FLOW TO   FLOW OUT OF   OVRLND.     DIRECT     STREAM       STREAM     STREAM     STREAM   STREAMBED  STREAMBED
                SEG.NO.  NO.  STRM. RCH.    AQUIFER    STRM. RCH.    RUNOFF     PRECIP       ET          HEAD       DEPTH      WIDTH   CONDCTNC.   GRADIENT

   1    1    1     1     1    2.1000E+01  2.2592E-01   2.0774E+01  0.000E+00  0.000E+00  0.000E+00  1.09416E+03  1.115E+00  1.220E+01  5.490E-02  1.372E+00
   1    2    2     1     2    2.0774E+01  3.4916E-01   2.0425E+01  0.000E+00  0.000E+00  0.000E+00  1.08917E+03  1.110E+00  1.214E+01  8.495E-02  1.370E+00
   1    3    3     1     3    2.0425E+01  2.9709E-01   2.0128E+01  0.000E+00  0.000E+00  0.000E+00  1.08352E+03  1.105E+00  1.206E+01  7.238E-02  1.368E+00
   1    3    4     1     4    2.0128E+01  2.7299E-01   1.9855E+01  0.000E+00  0.000E+00  0.000E+00  1.07851E+03  1.100E+00  1.200E+01  6.659E-02  1.367E+00
   1    4    5     2     1    1.7855E+01  0.0000E+00   1.7855E+01  0.000E+00  0.000E+00  0.000E+00  1.07292E+03  9.867E-01  1.200E+01  0.000E+00  1.329E+00
   1    5    6     2     2    1.7855E+01  0.0000E+00   1.7855E+01  0.000E+00  0.000E+00  0.000E+00  1.06750E+03  9.867E-01  1.200E+01  0.000E+00  1.329E+00
   1    6    6     2     3    1.7855E+01  0.0000E+00   1.7855E+01  0.000E+00  0.000E+00  0.000E+00  1.06278E+03  9.867E-01  1.200E+01  0.000E+00  1.329E+00
   1    7    6     2     4    1.7855E+01  0.0000E+00   1.7855E+01  0.000E+00  0.000E+00  0.000E+00  1.05806E+03  9.867E-01  1.200E+01  0.000E+00  1.329E+00
   1    8    6     2     5    1.7855E+01  0.0000E+00   1.7855E+01  0.000E+00  0.000E+00  0.000E+00  1.05335E+03  9.867E-01  1.200E+01  0.000E+00  1.329E+00
   1    3    5     3     1    2.0000E+00  2.8252E-01   1.7175E+00  0.000E+00  0.000E+00  0.000E+00  1.07555E+03  1.909E+00  9.636E+00  7.227E-02  1.955E+00
   1    3    6     3     2    1.7175E+00  2.4905E-01   1.4684E+00  0.000E+00  0.000E+00  0.000E+00  1.07264E+03  1.727E+00  8.909E+00  6.682E-02  1.864E+00
   1    3    7     3     3    1.4684E+00  1.9718E-01   1.2712E+00  0.000E+00  0.000E+00  0.000E+00  1.06987E+03  1.555E+00  8.218E+00  5.547E-02  1.777E+00
   1    4    8     3     4    1.2712E+00  2.2567E-01   1.0456E+00  0.000E+00  0.000E+00  0.000E+00  1.06682E+03  1.364E+00  7.455E+00  6.709E-02  1.682E+00
   1    5    8     3     5    1.0456E+00  1.5790E-01   8.8768E-01  0.000E+00  0.000E+00  0.000E+00  1.06362E+03  1.164E+00  6.655E+00  4.991E-02  1.582E+00
   1    6    8     3     6    8.8768E-01  5.5980E-02   8.3170E-01  0.000E+00  0.000E+00  0.000E+00  1.06158E+03  1.036E+00  6.145E+00  1.844E-02  1.518E+00
   1    5   10     4     1    1.0000E+01  0.0000E+00   1.0000E+01  0.000E+00  0.000E+00  0.000E+00  1.07837E+03  6.385E-01  1.000E+01  0.000E+00  1.213E+00
   1    5    9     4     2    1.0000E+01  0.0000E+00   1.0000E+01  0.000E+00  0.000E+00  0.000E+00  1.07155E+03  6.385E-01  1.000E+01  0.000E+00  1.213E+00
   1    6    8     4     3    1.0000E+01  0.0000E+00   1.0000E+01  0.000E+00  0.000E+00  0.000E+00  1.06382E+03  6.385E-01  1.000E+01  0.000E+00  1.213E+00
   1    6    8     5     1    1.0832E+01  2.3262E-01   1.0599E+01  0.000E+00  0.000E+00  0.000E+00  1.05869E+03  6.881E-01  1.577E+01  6.307E-02  1.229E+00
   1    7    7     5     2    1.0599E+01  2.8607E-01   1.0313E+01  0.000E+00  0.000E+00  0.000E+00  1.05418E+03  6.822E-01  1.554E+01  7.769E-02  1.227E+00
   1    8    7     5     3    1.0313E+01  1.9716E-01   1.0116E+01  0.000E+00  0.000E+00  0.000E+00  1.04993E+03  6.766E-01  1.532E+01  5.363E-02  1.226E+00
   1    8    6     5     4    1.0116E+01  1.3929E-01   9.9766E+00  0.000E+00  0.000E+00  0.000E+00  1.04692E+03  6.727E-01  1.517E+01  3.792E-02  1.224E+00
   1    9    6     6     1    2.4586E+01  0.0000E+00   2.4586E+01  0.000E+00  0.000E+00  0.000E+00  1.04394E+03  1.209E+00  1.200E+01  0.000E+00  1.403E+00
   1   10    7     6     2    2.4586E+01  0.0000E+00   2.4586E+01  0.000E+00  0.000E+00  0.000E+00  1.03939E+03  1.209E+00  1.200E+01  0.000E+00  1.403E+00
   1   11    7     6     3    2.4586E+01  0.0000E+00   2.4586E+01  0.000E+00  0.000E+00  0.000E+00  1.03485E+03  1.209E+00  1.200E+01  0.000E+00  1.403E+00
   1   12    7     6     4    2.4586E+01  0.0000E+00   2.4586E+01  0.000E+00  0.000E+00  0.000E+00  1.03030E+03  1.209E+00  1.200E+01  0.000E+00  1.403E+00
   1   13    7     6     5    2.4586E+01  0.0000E+00   2.4586E+01  0.000E+00  0.000E+00  0.000E+00  1.02712E+03  1.209E+00  1.200E+01  0.000E+00  2.187E-01
   1   14    9     7     1    1.5000E+02  1.2750E+00   1.4872E+02  0.000E+00  0.000E+00  0.000E+00  1.03987E+03  2.288E+00  5.530E+01  5.593E-01  7.599E-01
   1   13    8     7     2    1.4872E+02  1.9316E+00   1.4679E+02  0.000E+00  0.000E+00  0.000E+00  1.03478E+03  2.279E+00  5.526E+01  6.148E-01  1.047E+00
   1   13    7     7     3    1.4679E+02  1.8019E+00   1.4499E+02  0.000E+00  0.000E+00  0.000E+00  1.02969E+03  2.269E+00  5.521E+01  5.584E-01  1.076E+00
   1   13    6     8     1    1.6958E+02  1.3626E+00   1.6822E+02  0.000E+00  0.000E+00  0.000E+00  1.02482E+03  2.945E+00  4.270E+01  4.352E-01  1.044E+00
   1   13    5     8     2    1.6822E+02  7.1649E-01   1.6750E+02  0.000E+00  0.000E+00  0.000E+00  1.01856E+03  2.938E+00  4.260E+01  4.341E-01  5.501E-01
   1   13    4     8     3    1.6750E+02 -2.8517E-01   1.6778E+02  0.000E+00  0.000E+00  0.000E+00  1.01231E+03  2.937E+00  4.258E+01  4.339E+00 -2.191E-02
   1   13    3     8     4    1.6778E+02 -2.0731E+00   1.6986E+02  0.000E+00  0.000E+00  0.000E+00  1.00607E+03  2.945E+00  4.270E+01  4.351E+00 -1.588E-01
   1   13    2     8     5    1.6986E+02 -1.0393E+00   1.7090E+02  0.000E+00  0.000E+00  0.000E+00  9.99830E+02  2.955E+00  4.284E+01  4.366E+00 -7.935E-02
   1   13    1     8     6    1.7090E+02 -6.0018E-01   1.7150E+02  0.000E+00  0.000E+00  0.000E+00  9.94835E+02  2.960E+00  4.292E+01  2.624E+00 -7.624E-02
   1    6    8     9     1    3.2450E+00  0.0000E+00   3.2450E+00  0.000E+00  0.000E+00  0.000E+00  1.07877E+03  2.743E-01  4.000E+00  0.000E+00  1.091E+00





UNSATURATED ZONE PACKAGE VOLUMETRIC BUDGET FOR  TIME STEP    30 STRESS PERIOD    9
  ------------------------------------------------------------------------------



     CUMULATIVE VOLUMES      L**3       RATES FOR THIS TIME STEP      L**3/T
     ------------------                 ------------------------

           IN:                                      IN:
           ---                                      ---
        INFILTRATION =    35640878.8426          INFILTRATION =           4.0925

          OUT:                                     OUT:
          ----                                     ----
              UZF ET =   563691658.0364                UZF ET =           4.0925
        UZF RECHARGE =   563269813.1494          UZF RECHARGE =          23.8253

            IN - OUT = -1091320592.3432              IN - OUT =         -23.8254

          STORAGE:                                 STORAGE:
          --------                                 --------
      STORAGE CHANGE = -1091312862.6947        STORAGE CHANGE =         -23.8254

 PERCENT DISCREPANCY IS DIFFERENCE BETWEEN IN-OUT MINUS CHANGE IN STORAGE
 DIVIDED BY THE AVERAGE OF IN AND OUT TIMES 100

 PERCENT DISCREPANCY =          -0.00     PERCENT DISCREPANCY =           0.00






1
  VOLUMETRIC BUDGET FOR ENTIRE MODEL AT END OF TIME STEP   30, STRESS PERIOD   9
  ------------------------------------------------------------------------------

     CUMULATIVE VOLUMES      L**3       RATES FOR THIS TIME STEP      L**3/T
     ------------------                 ------------------------

           IN:                                      IN:
           ---                                      ---
             STORAGE =    27177452.0000               STORAGE =           0.7376
       CONSTANT HEAD =           0.0000         CONSTANT HEAD =           0.0000
               WELLS =           0.0000                 WELLS =           0.0000
     HEAD DEP BOUNDS =     6764971.0000       HEAD DEP BOUNDS =           0.2816
      STREAM LEAKAGE =   249490576.0000        STREAM LEAKAGE =          10.2562
        UZF RECHARGE =   563269760.0000          UZF RECHARGE =          23.8253
               GW ET =           0.0000                 GW ET =           0.0000
     SURFACE LEAKAGE =           0.0000       SURFACE LEAKAGE =           0.0000

            TOTAL IN =   846702720.0000              TOTAL IN =          35.1008

          OUT:                                     OUT:
          ----                                     ----
             STORAGE =   592618176.0000               STORAGE =          22.2114
       CONSTANT HEAD =           0.0000         CONSTANT HEAD =           0.0000
               WELLS =           0.0000                 WELLS =           0.0000
     HEAD DEP BOUNDS =     6808651.5000       HEAD DEP BOUNDS =           0.2684
      STREAM LEAKAGE =   181931728.0000        STREAM LEAKAGE =           3.9977
        UZF RECHARGE =           0.0000          UZF RECHARGE =           0.0000
               GW ET =    65304244.0000                 GW ET =           8.6231
     SURFACE LEAKAGE =           0.0000       SURFACE LEAKAGE =           0.0000

           TOTAL OUT =   846662784.0000             TOTAL OUT =          35.1006

            IN - OUT =       39936.0000              IN - OUT =       1.3733E-04

 PERCENT DISCREPANCY =           0.00     PERCENT DISCREPANCY =           0.00






         TIME SUMMARY AT END OF TIME STEP   30 IN STRESS PERIOD    9
                    SECONDS     MINUTES      HOURS       DAYS        YEARS
                    -----------------------------------------------------------
   TIME STEP LENGTH  87600.      1460.0      24.333      1.0139     2.77588E-03
 STRESS PERIOD TIME 2.62800E+06  43800.      730.00      30.417     8.32763E-02
         TOTAL TIME 2.36520E+07 3.94200E+05  6570.0      273.75     0.74949    
1
1
                            STRESS PERIOD NO.   10, LENGTH =   2628000.    
                            -----------------------------------------------

                              NUMBER OF TIME STEPS =    30

                               MULTIPLIER FOR DELT =     1.000

                            INITIAL TIME STEP SIZE =   87600.00    

 WELL NO.  LAYER   ROW   COL   STRESS RATE         
 --------------------------------------------------
      1      1      6      4       0.000    
      2      1      6      7       0.000    
      3      1      7      4       0.000    
      4      1      7      5       0.000    
      5      1      8      4       0.000    
      6      1      8      5       0.000    
      7      1      9      4       0.000    
      8      1      9      5       0.000    
      9      1     10      4       0.000    
     10      1     10      5       0.000    

     10 WELLS

 REUSING NON-PARAMETER GHB CELLS FROM LAST STRESS PERIOD

      2 GHB CELLS

 REUSING STREAM SEGMENT DATA FROM LAST STRESS PERIOD



            AREAL INFILTRATION RATE
 READING ON UNIT   19 WITH FORMAT: (10F4.0)            

            1           2           3           4           5           6           7           8           9          10
 ........................................................................................................................
   1   1.0000E-10  2.0000E-10   0.000       0.000       0.000       0.000       0.000       0.000       0.000       0.000    
   2   2.0000E-10  1.0000E-10  2.0000E-10   0.000       0.000      8.0000E-10  8.0000E-10  5.0000E-10   0.000       0.000    
   3    0.000      5.0000E-10  1.0000E-10  1.0000E-10  8.0000E-10  8.0000E-10  5.0000E-10  5.0000E-10   0.000       0.000    
   4   8.0000E-10  5.0000E-10  1.0000E-10  1.0000E-10  1.0000E-10  1.0000E-10  1.0000E-10  1.0000E-10  2.0000E-10   0.000    
   5   8.0000E-10  5.0000E-10  1.0000E-10  1.0000E-10  1.0000E-10  1.0000E-10  1.0000E-10  1.0000E-10  1.0000E-10  1.0000E-10
   6   8.0000E-10  5.0000E-10  5.0000E-10  2.0000E-10  2.0000E-10  1.0000E-10  1.0000E-10  1.0000E-10  1.0000E-10  5.0000E-10
   7   8.0000E-10  5.0000E-10  5.0000E-10  2.0000E-10  2.0000E-10  1.0000E-10  1.0000E-10  2.0000E-10  2.0000E-10   0.000    
   8    0.000      5.0000E-10  5.0000E-10  2.0000E-10  2.0000E-10  1.0000E-10  1.0000E-10  2.0000E-10  5.0000E-10   0.000    
   9    0.000      5.0000E-10  5.0000E-10  2.0000E-10  2.0000E-10  1.0000E-10  1.0000E-10  2.0000E-10  5.0000E-10   0.000    
  10    0.000      5.0000E-10  5.0000E-10  2.0000E-10  2.0000E-10  1.0000E-10  1.0000E-10  2.0000E-10  5.0000E-10  8.0000E-10
  11    0.000      1.0000E-10  1.0000E-10  1.0000E-10  1.0000E-10  1.0000E-10  1.0000E-10  2.0000E-10  5.0000E-10   0.000    
  12   1.0000E-10  1.0000E-10  1.0000E-10  1.0000E-10  1.0000E-10  1.0000E-10  1.0000E-10  1.0000E-10  2.0000E-10   0.000    
  13   1.0000E-10  1.0000E-10  2.0000E-10  2.0000E-10  2.0000E-10  2.0000E-10  2.0000E-10  1.0000E-10  1.0000E-10   0.000    
  14    0.000      2.0000E-10  5.0000E-10  5.0000E-10  5.0000E-10  5.0000E-10  5.0000E-10  2.0000E-10  1.0000E-10   0.000    
  15    0.000       0.000      8.0000E-10  8.0000E-10  8.0000E-10  8.0000E-10   0.000       0.000       0.000       0.000    

                  ET RATE =  1.500000E-08

 USING ET EXTINCTION DEPTH FROM PREVIOUS STRESS PERIOD. CURRENT PERIOD IS:      10

 USING EXTINCTION WATER CONTENT FROM PREVIOUS STRESS PERIOD. CURRENT PERIOD IS:      10
 
 SOLVING FOR HEAD 
                                                   Max.-Head-Change                         Max.-Flux-Residual
  Residual-Control   Outer-Iter.   Inner-Iter.     Column Row Layer    Maximum-Head-Change  Column Row Layer    Maximum-Flux-Residual          L2-NORM 
          0                 1           2             7    6     1      -0.2294485903E+00       7    6    1        -0.1252346266E+02      0.1288017434E+02
     PET DIFF ERROR     6    7   -0.1411338038E-08    0.1499999902E-07
     PET DIFF ERROR     6    8   -0.1411338038E-08    0.1499999902E-07
          0                 2           2             7    6     1       0.2514321026E+00       7    6    1         0.1385869041E+02      0.1386687287E+02
          0                 3           2             7    6     1      -0.3003589565E+00       7    6    1        -0.1668245101E+02      0.1668335509E+02
     PET DIFF ERROR     6    7   -0.1196642232E-08    0.1499999902E-07
     PET DIFF ERROR     6    8   -0.1196642232E-08    0.1499999902E-07
          0                 4           2             7    6     1       0.2992576017E+00       7    6    1         0.1680071664E+02      0.1680108806E+02
          0                 5           2             7    6     1      -0.2928953789E+00       7    6    1        -0.1656706185E+02      0.1656726185E+02
          0                 6           2             7    6     1       0.2871729497E+00       7    6    1         0.1641843142E+02      0.1641865969E+02
          0                 7           2             7    6     1      -0.7754879297E-02       7    6    1        -0.4482976465E+00      0.4539676643E+00
          0                 8           2             7    6     1      -0.1593461425E-02       7    6    1        -0.9203546989E-01      0.9277872371E-01
          0                 9           2             7    6     1      -0.3277563551E-03       7    6    1        -0.1891518901E-01      0.1903551355E-01
          0                10           1             7    6     1      -0.6747997454E-04       7    6    1        -0.3891373693E-02      0.3947065537E-02
                                                   Max.-Head-Change                         Max.-Flux-Residual
  Residual-Control   Outer-Iter.   Inner-Iter.     Column Row Layer    Maximum-Head-Change  Column Row Layer    Maximum-Flux-Residual          L2-NORM 
          0                11           1             7    6     1      -0.1390539808E-04       7    6    1        -0.8013092893E-03      0.8990948548E-03
          0                12           1             4   13     1      -0.3074424763E-05       4   13    1        -0.1844167818E-03      0.3672821286E-03

    ------------------------------------------------
       NWT REQUIRED           12 OUTER ITERATIONS 
       AND A TOTAL OF         21 INNER ITERATIONS.
    ------------------------------------------------

 NO OUTPUT CONTROL FOR STRESS PERIOD   10   TIME STEP    1
 
 SOLVING FOR HEAD 
                                                   Max.-Head-Change                         Max.-Flux-Residual
  Residual-Control   Outer-Iter.   Inner-Iter.     Column Row Layer    Maximum-Head-Change  Column Row Layer    Maximum-Flux-Residual          L2-NORM 
          0                 1           2             7    6     1      -0.2854395025E+00       7    6    1        -0.1557671456E+02      0.1579406297E+02
          0                 2           2             7    6     1       0.3124561305E+00       7    6    1         0.1722284382E+02      0.1722869500E+02
          0                 3           2             7    6     1      -0.1780129043E-01       7    6    1        -0.9907967492E+00      0.1007134020E+01
          0                 4           2             7    6     1      -0.3140247003E-02       7    6    1        -0.1746199375E+00      0.1873290916E+00
          0                 5           2             7    6     1      -0.5546806572E-03       7    6    1        -0.3081816428E-01      0.4295633612E-01
          0                 6           1             8    2     1       0.1069531815E-03       7    6    1        -0.5445819520E-02      0.1445537485E-01
          0                 7           1             8    2     1       0.4808202952E-04       8    2    1         0.1248454127E-02      0.6075966476E-02
          0                 8           1             8    2     1       0.2161577251E-04       8    2    1         0.5612566110E-03      0.2702495219E-02
          0                 9           1             8    2     1       0.9717568618E-05       8    2    1         0.2523185844E-03      0.1211294286E-02

    ------------------------------------------------
       NWT REQUIRED            9 OUTER ITERATIONS 
       AND A TOTAL OF         14 INNER ITERATIONS.
    ------------------------------------------------

 NO OUTPUT CONTROL FOR STRESS PERIOD   10   TIME STEP    2
 
 SOLVING FOR HEAD 
                                                   Max.-Head-Change                         Max.-Flux-Residual
  Residual-Control   Outer-Iter.   Inner-Iter.     Column Row Layer    Maximum-Head-Change  Column Row Layer    Maximum-Flux-Residual          L2-NORM 
          0                 1           2             7    6     1      -0.2882783530E+00       7    6    1        -0.1573153580E+02      0.1593115198E+02
          0                 2           2             7    6     1       0.3155521686E+00       7    6    1         0.1739353481E+02      0.1740219448E+02
          0                 3           2             7    6     1      -0.2268577807E+00       7    6    1        -0.1260096001E+02      0.1260228947E+02
          0                 4           2             7    6     1       0.8374406225E-02       7    6    1         0.4707252743E+00      0.4790900966E+00
          0                 5           2             7    6     1      -0.5885730777E-03       7    6    1        -0.3311399354E-01      0.4516919515E-01
          0                 6           1             8    2     1       0.1069437381E-03       8    2    1         0.2776803869E-02      0.1357887033E-01
          0                 7           1             8    2     1       0.4807765558E-04       8    2    1         0.1248343288E-02      0.5986605625E-02
          0                 8           1             8    2     1       0.2161374861E-04       8    2    1         0.5612052847E-03      0.2679454303E-02
          0                 9           1             8    2     1       0.9716633078E-05       8    2    1         0.2522948379E-03      0.1200164250E-02

    ------------------------------------------------
       NWT REQUIRED            9 OUTER ITERATIONS 
       AND A TOTAL OF         14 INNER ITERATIONS.
    ------------------------------------------------

 NO OUTPUT CONTROL FOR STRESS PERIOD   10   TIME STEP    3
 
 SOLVING FOR HEAD 
                                                   Max.-Head-Change                         Max.-Flux-Residual
  Residual-Control   Outer-Iter.   Inner-Iter.     Column Row Layer    Maximum-Head-Change  Column Row Layer    Maximum-Flux-Residual          L2-NORM 
          0                 1           2             7    6     1      -0.2010050379E+00       7    6    1        -0.1096595193E+02      0.1122456278E+02
          0                 2           2             7    6     1       0.2306107665E+00       7    6    1         0.1271208979E+02      0.1271968691E+02
          0                 3           2             7    6     1      -0.2046689292E-01       7    6    1        -0.1138341257E+01      0.1150971878E+01
          0                 4           2             7    6     1       0.1629586666E-02       7    6    1         0.9119296785E-01      0.1132251652E+00
          0                 5           2             8    2     1       0.2378612751E-03       7    6    1        -0.6406762482E-02      0.3053768694E-01
          0                 6           1             8    2     1       0.1069329682E-03       8    2    1         0.2776530203E-02      0.1335534144E-01
          0                 7           1             8    2     1       0.4807268812E-04       8    2    1         0.1248216976E-02      0.5978233845E-02
          0                 8           1             8    2     1       0.2161145910E-04       8    2    1         0.5611470298E-03      0.2677754564E-02
          0                 9           1             8    2     1       0.9715578235E-05       8    2    1         0.2522679910E-03      0.1199514663E-02

    ------------------------------------------------
       NWT REQUIRED            9 OUTER ITERATIONS 
       AND A TOTAL OF         14 INNER ITERATIONS.
    ------------------------------------------------

 NO OUTPUT CONTROL FOR STRESS PERIOD   10   TIME STEP    4
 
 SOLVING FOR HEAD 
                                                   Max.-Head-Change                         Max.-Flux-Residual
  Residual-Control   Outer-Iter.   Inner-Iter.     Column Row Layer    Maximum-Head-Change  Column Row Layer    Maximum-Flux-Residual          L2-NORM 
          0                 1           2             7    6     1      -0.2821308688E+00       7    6    1        -0.1539027751E+02      0.1556312060E+02
          0                 2           2             7    6     1       0.3186097329E+00       7    6    1         0.1756322780E+02      0.1756869368E+02
          0                 3           2             7    6     1      -0.2829143543E-01       7    6    1        -0.1573493043E+01      0.1584007513E+01
          0                 4           2             7    6     1       0.2252342985E-02       7    6    1         0.1260493741E+00      0.1428492933E+00
          0                 5           2             8    2     1       0.2378370002E-03       7    6    1        -0.8856217287E-02      0.3113780615E-01
          0                 6           1             8    2     1       0.1069217742E-03       8    2    1         0.2776245516E-02      0.1334515951E-01
          0                 7           1             8    2     1       0.4806753008E-04       8    2    1         0.1248085716E-02      0.5970848344E-02
          0                 8           1             8    2     1       0.2160908379E-04       8    2    1         0.5610865531E-03      0.2674416186E-02
          0                 9           1             8    2     1       0.9714485499E-05       8    2    1         0.2522401484E-03      0.1198029361E-02

    ------------------------------------------------
       NWT REQUIRED            9 OUTER ITERATIONS 
       AND A TOTAL OF         14 INNER ITERATIONS.
    ------------------------------------------------

 OUTPUT CONTROL FOR STRESS PERIOD   10   TIME STEP    5
    PRINT BUDGET
    SAVE BUDGET
 UBUDSV SAVING "         STORAGE" ON UNIT102 AT TIME STEP     5, STRESS PERIOD   10
 UBUDSV SAVING "   CONSTANT HEAD" ON UNIT102 AT TIME STEP     5, STRESS PERIOD   10
 UBUDSV SAVING "FLOW RIGHT FACE " ON UNIT102 AT TIME STEP     5, STRESS PERIOD   10
 UBUDSV SAVING "FLOW FRONT FACE " ON UNIT102 AT TIME STEP     5, STRESS PERIOD   10

  HEAD DEP BOUNDS   PERIOD   10   STEP     5
 BOUNDARY      1   LAYER   1   ROW    13   COL     1   RATE   -0.271486    
 BOUNDARY      2   LAYER   1   ROW    14   COL     9   RATE    0.281565    



 STREAM LISTING     PERIOD     10   STEP        5

 LAYER ROW COL. STREAM  RCH.  FLOW INTO     FLOW TO   FLOW OUT OF   OVRLND.     DIRECT     STREAM       STREAM     STREAM     STREAM   STREAMBED  STREAMBED
                SEG.NO.  NO.  STRM. RCH.    AQUIFER    STRM. RCH.    RUNOFF     PRECIP       ET          HEAD       DEPTH      WIDTH   CONDCTNC.   GRADIENT

   1    1    1     1     1    7.0000E+00  1.1914E-01   6.8809E+00  0.000E+00  0.000E+00  0.000E+00  1.09385E+03  7.984E-01  6.970E+00  3.137E-02  1.266E+00
   1    2    2     1     2    6.8809E+00  1.8311E-01   6.6977E+00  0.000E+00  0.000E+00  0.000E+00  1.08885E+03  7.942E-01  6.894E+00  4.826E-02  1.265E+00
   1    3    3     1     3    6.6977E+00  1.5480E-01   6.5429E+00  0.000E+00  0.000E+00  0.000E+00  1.08321E+03  7.894E-01  6.809E+00  4.085E-02  1.263E+00
   1    3    4     1     4    6.5429E+00  1.4143E-01   6.4015E+00  0.000E+00  0.000E+00  0.000E+00  1.07819E+03  7.852E-01  6.732E+00  3.737E-02  1.262E+00
   1    4    5     2     1    4.4015E+00  0.0000E+00   4.4015E+00  0.000E+00  0.000E+00  0.000E+00  1.07236E+03  4.259E-01  1.200E+01  0.000E+00  1.142E+00
   1    5    6     2     2    4.4015E+00  0.0000E+00   4.4015E+00  0.000E+00  0.000E+00  0.000E+00  1.06694E+03  4.259E-01  1.200E+01  0.000E+00  1.142E+00
   1    6    6     2     3    4.4015E+00  0.0000E+00   4.4015E+00  0.000E+00  0.000E+00  0.000E+00  1.06222E+03  4.259E-01  1.200E+01  0.000E+00  1.142E+00
   1    7    6     2     4    4.4015E+00  0.0000E+00   4.4015E+00  0.000E+00  0.000E+00  0.000E+00  1.05750E+03  4.259E-01  1.200E+01  0.000E+00  1.142E+00
   1    8    6     2     5    4.4015E+00  0.0000E+00   4.4015E+00  0.000E+00  0.000E+00  0.000E+00  1.05278E+03  4.259E-01  1.200E+01  0.000E+00  1.142E+00
   1    3    5     3     1    2.0000E+00  2.8252E-01   1.7175E+00  0.000E+00  0.000E+00  0.000E+00  1.07555E+03  1.909E+00  9.636E+00  7.227E-02  1.955E+00
   1    3    6     3     2    1.7175E+00  2.4905E-01   1.4684E+00  0.000E+00  0.000E+00  0.000E+00  1.07264E+03  1.727E+00  8.909E+00  6.682E-02  1.864E+00
   1    3    7     3     3    1.4684E+00  1.9718E-01   1.2712E+00  0.000E+00  0.000E+00  0.000E+00  1.06987E+03  1.555E+00  8.218E+00  5.547E-02  1.777E+00
   1    4    8     3     4    1.2712E+00  2.2567E-01   1.0456E+00  0.000E+00  0.000E+00  0.000E+00  1.06682E+03  1.364E+00  7.455E+00  6.709E-02  1.682E+00
   1    5    8     3     5    1.0456E+00  1.5790E-01   8.8768E-01  0.000E+00  0.000E+00  0.000E+00  1.06362E+03  1.164E+00  6.655E+00  4.991E-02  1.582E+00
   1    6    8     3     6    8.8768E-01  5.5980E-02   8.3170E-01  0.000E+00  0.000E+00  0.000E+00  1.06158E+03  1.036E+00  6.145E+00  1.844E-02  1.518E+00
   1    5   10     4     1    1.0000E+01  0.0000E+00   1.0000E+01  0.000E+00  0.000E+00  0.000E+00  1.07837E+03  6.385E-01  1.000E+01  0.000E+00  1.213E+00
   1    5    9     4     2    1.0000E+01  0.0000E+00   1.0000E+01  0.000E+00  0.000E+00  0.000E+00  1.07155E+03  6.385E-01  1.000E+01  0.000E+00  1.213E+00
   1    6    8     4     3    1.0000E+01  0.0000E+00   1.0000E+01  0.000E+00  0.000E+00  0.000E+00  1.06382E+03  6.385E-01  1.000E+01  0.000E+00  1.213E+00
   1    6    8     5     1    1.0832E+01  2.3262E-01   1.0599E+01  0.000E+00  0.000E+00  0.000E+00  1.05869E+03  6.881E-01  1.577E+01  6.307E-02  1.229E+00
   1    7    7     5     2    1.0599E+01  2.8607E-01   1.0313E+01  0.000E+00  0.000E+00  0.000E+00  1.05418E+03  6.822E-01  1.554E+01  7.769E-02  1.227E+00
   1    8    7     5     3    1.0313E+01  1.9716E-01   1.0116E+01  0.000E+00  0.000E+00  0.000E+00  1.04993E+03  6.766E-01  1.532E+01  5.363E-02  1.226E+00
   1    8    6     5     4    1.0116E+01  1.3929E-01   9.9766E+00  0.000E+00  0.000E+00  0.000E+00  1.04692E+03  6.727E-01  1.517E+01  3.792E-02  1.224E+00
   1    9    6     6     1    1.4378E+01  0.0000E+00   1.4378E+01  0.000E+00  0.000E+00  0.000E+00  1.04360E+03  8.762E-01  1.200E+01  0.000E+00  1.292E+00
   1   10    7     6     2    1.4378E+01  0.0000E+00   1.4378E+01  0.000E+00  0.000E+00  0.000E+00  1.03906E+03  8.762E-01  1.200E+01  0.000E+00  1.292E+00
   1   11    7     6     3    1.4378E+01  0.0000E+00   1.4378E+01  0.000E+00  0.000E+00  0.000E+00  1.03451E+03  8.762E-01  1.200E+01  0.000E+00  1.292E+00
   1   12    7     6     4    1.4378E+01  0.0000E+00   1.4378E+01  0.000E+00  0.000E+00  0.000E+00  1.02997E+03  8.762E-01  1.200E+01  0.000E+00  1.292E+00
   1   13    7     6     5    1.4378E+01  0.0000E+00   1.4378E+01  0.000E+00  0.000E+00  0.000E+00  1.02679E+03  8.762E-01  1.200E+01  0.000E+00  1.086E-01
   1   14    9     7     1    1.5000E+02  1.2742E+00   1.4873E+02  0.000E+00  0.000E+00  0.000E+00  1.03987E+03  2.288E+00  5.530E+01  5.593E-01  7.594E-01
   1   13    8     7     2    1.4873E+02  1.9315E+00   1.4679E+02  0.000E+00  0.000E+00  0.000E+00  1.03478E+03  2.279E+00  5.526E+01  6.148E-01  1.047E+00
   1   13    7     7     3    1.4679E+02  1.8032E+00   1.4499E+02  0.000E+00  0.000E+00  0.000E+00  1.02969E+03  2.269E+00  5.521E+01  5.584E-01  1.076E+00
   1   13    6     8     1    1.5937E+02  1.2917E+00   1.5808E+02  0.000E+00  0.000E+00  0.000E+00  1.02475E+03  2.877E+00  4.172E+01  4.251E-01  1.013E+00
   1   13    5     8     2    1.5808E+02  6.3609E-01   1.5744E+02  0.000E+00  0.000E+00  0.000E+00  1.01850E+03  2.871E+00  4.162E+01  4.242E-01  4.999E-01
   1   13    4     8     3    1.5744E+02 -8.3140E-01   1.5827E+02  0.000E+00  0.000E+00  0.000E+00  1.01225E+03  2.871E+00  4.163E+01  4.243E+00 -6.532E-02
   1   13    3     8     4    1.5827E+02 -2.5865E+00   1.6086E+02  0.000E+00  0.000E+00  0.000E+00  1.00601E+03  2.883E+00  4.180E+01  4.260E+00 -2.024E-01
   1   13    2     8     5    1.6086E+02 -1.5676E+00   1.6243E+02  0.000E+00  0.000E+00  0.000E+00  9.99772E+02  2.897E+00  4.201E+01  4.280E+00 -1.221E-01
   1   13    1     8     6    1.6243E+02 -9.3771E-01   1.6336E+02  0.000E+00  0.000E+00  0.000E+00  9.94780E+02  2.905E+00  4.213E+01  2.576E+00 -1.214E-01
   1    6    8     9     1    2.9558E-07  0.0000E+00   2.9558E-07  0.000E+00  0.000E+00  0.000E+00  1.07850E+03  1.637E-05  4.000E+00  0.000E+00  1.000E+00



 UBDSV3 SAVING "     NETRECHARGE" ON UNIT 100 AT TIME STEP     5, STRESS PERIOD  10
 UBDSV3 SAVING "    NETDISCHARGE" ON UNIT 101 AT TIME STEP     5, STRESS PERIOD  10
 UBDSV3 SAVING "           GW ET" ON UNIT  61 AT TIME STEP     5, STRESS PERIOD  10
 UBDSV3 SAVING "    UZF RECHARGE" ON UNIT  61 AT TIME STEP     5, STRESS PERIOD  10
 UBDSV3 SAVING " SURFACE LEAKAGE" ON UNIT  61 AT TIME STEP     5, STRESS PERIOD  10
 UBDSV3 SAVING "       HORT+DUNN" ON UNIT  61 AT TIME STEP     5, STRESS PERIOD  10
 UBDSV3 SAVING "  STORAGE CHANGE" ON UNIT  61 AT TIME STEP     5, STRESS PERIOD  10


UNSATURATED ZONE PACKAGE VOLUMETRIC BUDGET FOR  TIME STEP     5 STRESS PERIOD   10
  ------------------------------------------------------------------------------



     CUMULATIVE VOLUMES      L**3       RATES FOR THIS TIME STEP      L**3/T
     ------------------                 ------------------------

           IN:                                      IN:
           ---                                      ---
        INFILTRATION =    38449709.0487          INFILTRATION =           0.8475

          OUT:                                     OUT:
          ----                                     ----
              UZF ET =   564388297.5989                UZF ET =           1.5925
        UZF RECHARGE =   573545748.4855          UZF RECHARGE =          23.3050

            IN - OUT = -1099484337.0357              IN - OUT =         -24.0500

          STORAGE:                                 STORAGE:
          --------                                 --------
      STORAGE CHANGE = -1099475657.2910        STORAGE CHANGE =         -24.0500

 PERCENT DISCREPANCY IS DIFFERENCE BETWEEN IN-OUT MINUS CHANGE IN STORAGE
 DIVIDED BY THE AVERAGE OF IN AND OUT TIMES 100

 PERCENT DISCREPANCY =          -0.00     PERCENT DISCREPANCY =           0.00






1
  VOLUMETRIC BUDGET FOR ENTIRE MODEL AT END OF TIME STEP    5, STRESS PERIOD  10
  ------------------------------------------------------------------------------

     CUMULATIVE VOLUMES      L**3       RATES FOR THIS TIME STEP      L**3/T
     ------------------                 ------------------------

           IN:                                      IN:
           ---                                      ---
             STORAGE =    28216140.0000               STORAGE =       6.6372E-02
       CONSTANT HEAD =           0.0000         CONSTANT HEAD =           0.0000
               WELLS =           0.0000                 WELLS =           0.0000
     HEAD DEP BOUNDS =     6888306.0000       HEAD DEP BOUNDS =           0.2816
      STREAM LEAKAGE =   253716544.0000        STREAM LEAKAGE =           9.5586
        UZF RECHARGE =   573545728.0000          UZF RECHARGE =          23.3050
               GW ET =           0.0000                 GW ET =           0.0000
     SURFACE LEAKAGE =           0.0000       SURFACE LEAKAGE =           0.0000

            TOTAL IN =   862366720.0000              TOTAL IN =          33.2115

          OUT:                                     OUT:
          ----                                     ----
             STORAGE =   603862848.0000               STORAGE =          25.0130
       CONSTANT HEAD =           0.0000         CONSTANT HEAD =           0.0000
               WELLS =     1016027.8750                 WELLS =           0.0000
     HEAD DEP BOUNDS =     6927060.0000       HEAD DEP BOUNDS =           0.2715
      STREAM LEAKAGE =   184343712.0000        STREAM LEAKAGE =           5.9232
        UZF RECHARGE =           0.0000          UZF RECHARGE =           0.0000
               GW ET =    66175800.0000                 GW ET =           2.0001
     SURFACE LEAKAGE =           0.0000       SURFACE LEAKAGE =           0.0000

           TOTAL OUT =   862325440.0000             TOTAL OUT =          33.2078

            IN - OUT =       41280.0000              IN - OUT =       3.7155E-03

 PERCENT DISCREPANCY =           0.00     PERCENT DISCREPANCY =           0.01






         TIME SUMMARY AT END OF TIME STEP    5 IN STRESS PERIOD   10
                    SECONDS     MINUTES      HOURS       DAYS        YEARS
                    -----------------------------------------------------------
   TIME STEP LENGTH  87600.      1460.0      24.333      1.0139     2.77588E-03
 STRESS PERIOD TIME 4.38000E+05  7300.0      121.67      5.0694     1.38794E-02
         TOTAL TIME 2.40900E+07 4.01500E+05  6691.7      278.82     0.76337    
1
 
 SOLVING FOR HEAD 
                                                   Max.-Head-Change                         Max.-Flux-Residual
  Residual-Control   Outer-Iter.   Inner-Iter.     Column Row Layer    Maximum-Head-Change  Column Row Layer    Maximum-Flux-Residual          L2-NORM 
          0                 1           2             7    6     1      -0.2825091976E+00       7    6    1        -0.1541139040E+02      0.1557307806E+02
          0                 2           2             7    6     1       0.3186368581E+00       7    6    1         0.1756464626E+02      0.1756999024E+02
          0                 3           2             7    6     1      -0.2828133052E-01       7    6    1        -0.1572938647E+01      0.1583442070E+01
          0                 4           2             7    6     1       0.2251567136E-02       7    6    1         0.1260050255E+00      0.1427682820E+00
          0                 5           2             8    2     1       0.2378117842E-03       7    6    1        -0.8853080751E-02      0.3109798209E-01
          0                 6           1             8    2     1       0.1069101581E-03       8    2    1         0.2775949842E-02      0.1332695605E-01
          0                 7           1             8    2     1       0.4806218196E-04       8    2    1         0.1247949522E-02      0.5962758818E-02
          0                 8           1             8    2     1       0.2160662357E-04       8    2    1         0.5610238662E-03      0.2670825816E-02
          0                 9           1             8    2     1       0.9713354122E-05       8    2    1         0.2522113108E-03      0.1196435590E-02

    ------------------------------------------------
       NWT REQUIRED            9 OUTER ITERATIONS 
       AND A TOTAL OF         14 INNER ITERATIONS.
    ------------------------------------------------

 NO OUTPUT CONTROL FOR STRESS PERIOD   10   TIME STEP    6
 
 SOLVING FOR HEAD 
                                                   Max.-Head-Change                         Max.-Flux-Residual
  Residual-Control   Outer-Iter.   Inner-Iter.     Column Row Layer    Maximum-Head-Change  Column Row Layer    Maximum-Flux-Residual          L2-NORM 
          0                 1           2             7    6     1      -0.2828596307E+00       7    6    1        -0.1543093958E+02      0.1558283793E+02
          0                 2           2             7    6     1       0.3186619882E+00       7    6    1         0.1756596271E+02      0.1757119878E+02
          0                 3           2             7    6     1      -0.2827203281E-01       7    6    1        -0.1572428512E+01      0.1582921266E+01
          0                 4           2             7    6     1       0.2250852736E-02       7    6    1         0.1259642163E+00      0.1426920908E+00
          0                 5           2             8    2     1       0.2377856435E-03       7    6    1        -0.8850194876E-02      0.3105974062E-01
          0                 6           1             8    2     1       0.1068981282E-03       8    2    1         0.2775643391E-02      0.1330944830E-01
          0                 7           1             8    2     1       0.4805664950E-04       8    2    1         0.1247808507E-02      0.5954973107E-02
          0                 8           1             8    2     1       0.2160408045E-04       8    2    1         0.5609590137E-03      0.2667368183E-02
          0                 9           1             8    2     1       0.9712185853E-05       8    2    1         0.2521815026E-03      0.1194900022E-02

    ------------------------------------------------
       NWT REQUIRED            9 OUTER ITERATIONS 
       AND A TOTAL OF         14 INNER ITERATIONS.
    ------------------------------------------------

 NO OUTPUT CONTROL FOR STRESS PERIOD   10   TIME STEP    7
 
 SOLVING FOR HEAD 
                                                   Max.-Head-Change                         Max.-Flux-Residual
  Residual-Control   Outer-Iter.   Inner-Iter.     Column Row Layer    Maximum-Head-Change  Column Row Layer    Maximum-Flux-Residual          L2-NORM 
          0                 1           2             7    6     1      -0.2831843282E+00       7    6    1        -0.1544904675E+02      0.1559234295E+02
          0                 2           2             7    6     1       0.3186852732E+00       7    6    1         0.1756718469E+02      0.1757232520E+02
          0                 3           2             7    6     1      -0.2826347136E-01       7    6    1        -0.1571958752E+01      0.1582440989E+01
          0                 4           2             7    6     1       0.2250194409E-02       7    6    1         0.1259266359E+00      0.1426198536E+00
          0                 5           2             8    2     1       0.2377605869E-03       7    6    1        -0.8847537716E-02      0.3102251772E-01
          0                 6           1             8    2     1       0.1068865850E-03       8    2    1         0.2775349584E-02      0.1329238241E-01
          0                 7           1             8    2     1       0.4805133514E-04       8    2    1         0.1247673177E-02      0.5947380271E-02
          0                 8           1             8    2     1       0.2160163561E-04       8    2    1         0.5608967231E-03      0.2663995177E-02
          0                 9           1             8    2     1       0.9711061729E-05       8    2    1         0.2521528487E-03      0.1193402073E-02

    ------------------------------------------------
       NWT REQUIRED            9 OUTER ITERATIONS 
       AND A TOTAL OF         14 INNER ITERATIONS.
    ------------------------------------------------

 NO OUTPUT CONTROL FOR STRESS PERIOD   10   TIME STEP    8
 
 SOLVING FOR HEAD 
                                                   Max.-Head-Change                         Max.-Flux-Residual
  Residual-Control   Outer-Iter.   Inner-Iter.     Column Row Layer    Maximum-Head-Change  Column Row Layer    Maximum-Flux-Residual          L2-NORM 
          0                 1           2             7    6     1      -0.2834853809E+00       7    6    1        -0.1546582936E+02      0.1560155729E+02
          0                 2           2             7    6     1       0.3187068612E+00       7    6    1         0.1756831972E+02      0.1757337528E+02
          0                 3           2             7    6     1      -0.2825551061E-01       7    6    1        -0.1571509243E+01      0.1581947162E+01
          0                 4           2             7    6     1       0.2249534273E-02       7    6    1         0.1258933483E+00      0.1425416576E+00
          0                 5           2             8    2     1       0.2377326107E-03       7    6    1        -0.8844796253E-02      0.3098173275E-01
          0                 6           1             8    2     1       0.1068737339E-03       8    2    1         0.2775021726E-02      0.1327450994E-01
          0                 7           1             8    2     1       0.4804543490E-04       8    2    1         0.1247522581E-02      0.5939347991E-02
          0                 8           1             8    2     1       0.2159892766E-04       8    2    1         0.5608275830E-03      0.2660358717E-02
          0                 9           1             8    2     1       0.9709819678E-05       8    2    1         0.2521211239E-03      0.1191753102E-02

    ------------------------------------------------
       NWT REQUIRED            9 OUTER ITERATIONS 
       AND A TOTAL OF         14 INNER ITERATIONS.
    ------------------------------------------------

 NO OUTPUT CONTROL FOR STRESS PERIOD   10   TIME STEP    9
 
 SOLVING FOR HEAD 
                                                   Max.-Head-Change                         Max.-Flux-Residual
  Residual-Control   Outer-Iter.   Inner-Iter.     Column Row Layer    Maximum-Head-Change  Column Row Layer    Maximum-Flux-Residual          L2-NORM 
          0                 1           2             7    6     1      -0.2837646955E+00       7    6    1        -0.1548139495E+02      0.1561044904E+02
          0                 2           2             7    6     1       0.3187268903E+00       7    6    1         0.1756937475E+02      0.1757435443E+02
          0                 3           2             7    6     1      -0.2824823838E-01       7    6    1        -0.1571110136E+01      0.1581536515E+01
          0                 4           2             7    6     1       0.2248973970E-02       7    6    1         0.1258614316E+00      0.1424738342E+00
          0                 5           2             8    2     1       0.2377037131E-03       7    6    1        -0.8842538236E-02      0.3094411605E-01
          0                 6           1             8    2     1       0.1068604676E-03       8    2    1         0.2774683103E-02      0.1325722753E-01
          0                 7           1             8    2     1       0.4803934807E-04       8    2    1         0.1247367149E-02      0.5931656287E-02
          0                 8           1             8    2     1       0.2159613642E-04       8    2    1         0.5607562744E-03      0.2656940059E-02
          0                 9           1             8    2     1       0.9708540360E-05       8    2    1         0.2520884218E-03      0.1190233294E-02

    ------------------------------------------------
       NWT REQUIRED            9 OUTER ITERATIONS 
       AND A TOTAL OF         14 INNER ITERATIONS.
    ------------------------------------------------

 OUTPUT CONTROL FOR STRESS PERIOD   10   TIME STEP   10
    PRINT BUDGET
    SAVE BUDGET
 UBUDSV SAVING "         STORAGE" ON UNIT102 AT TIME STEP    10, STRESS PERIOD   10
 UBUDSV SAVING "   CONSTANT HEAD" ON UNIT102 AT TIME STEP    10, STRESS PERIOD   10
 UBUDSV SAVING "FLOW RIGHT FACE " ON UNIT102 AT TIME STEP    10, STRESS PERIOD   10
 UBUDSV SAVING "FLOW FRONT FACE " ON UNIT102 AT TIME STEP    10, STRESS PERIOD   10

  HEAD DEP BOUNDS   PERIOD   10   STEP    10
 BOUNDARY      1   LAYER   1   ROW    13   COL     1   RATE   -0.273926    
 BOUNDARY      2   LAYER   1   ROW    14   COL     9   RATE    0.281508    



 STREAM LISTING     PERIOD     10   STEP       10

 LAYER ROW COL. STREAM  RCH.  FLOW INTO     FLOW TO   FLOW OUT OF   OVRLND.     DIRECT     STREAM       STREAM     STREAM     STREAM   STREAMBED  STREAMBED
                SEG.NO.  NO.  STRM. RCH.    AQUIFER    STRM. RCH.    RUNOFF     PRECIP       ET          HEAD       DEPTH      WIDTH   CONDCTNC.   GRADIENT

   1    1    1     1     1    7.0000E+00  1.1914E-01   6.8809E+00  0.000E+00  0.000E+00  0.000E+00  1.09385E+03  7.984E-01  6.970E+00  3.137E-02  1.266E+00
   1    2    2     1     2    6.8809E+00  1.8311E-01   6.6977E+00  0.000E+00  0.000E+00  0.000E+00  1.08885E+03  7.942E-01  6.894E+00  4.826E-02  1.265E+00
   1    3    3     1     3    6.6977E+00  1.5480E-01   6.5429E+00  0.000E+00  0.000E+00  0.000E+00  1.08321E+03  7.894E-01  6.809E+00  4.085E-02  1.263E+00
   1    3    4     1     4    6.5429E+00  1.4143E-01   6.4015E+00  0.000E+00  0.000E+00  0.000E+00  1.07819E+03  7.852E-01  6.732E+00  3.737E-02  1.262E+00
   1    4    5     2     1    4.4015E+00  0.0000E+00   4.4015E+00  0.000E+00  0.000E+00  0.000E+00  1.07236E+03  4.259E-01  1.200E+01  0.000E+00  1.142E+00
   1    5    6     2     2    4.4015E+00  0.0000E+00   4.4015E+00  0.000E+00  0.000E+00  0.000E+00  1.06694E+03  4.259E-01  1.200E+01  0.000E+00  1.142E+00
   1    6    6     2     3    4.4015E+00  0.0000E+00   4.4015E+00  0.000E+00  0.000E+00  0.000E+00  1.06222E+03  4.259E-01  1.200E+01  0.000E+00  1.142E+00
   1    7    6     2     4    4.4015E+00  0.0000E+00   4.4015E+00  0.000E+00  0.000E+00  0.000E+00  1.05750E+03  4.259E-01  1.200E+01  0.000E+00  1.142E+00
   1    8    6     2     5    4.4015E+00  0.0000E+00   4.4015E+00  0.000E+00  0.000E+00  0.000E+00  1.05278E+03  4.259E-01  1.200E+01  0.000E+00  1.142E+00
   1    3    5     3     1    2.0000E+00  2.8252E-01   1.7175E+00  0.000E+00  0.000E+00  0.000E+00  1.07555E+03  1.909E+00  9.636E+00  7.227E-02  1.955E+00
   1    3    6     3     2    1.7175E+00  2.4905E-01   1.4684E+00  0.000E+00  0.000E+00  0.000E+00  1.07264E+03  1.727E+00  8.909E+00  6.682E-02  1.864E+00
   1    3    7     3     3    1.4684E+00  1.9718E-01   1.2712E+00  0.000E+00  0.000E+00  0.000E+00  1.06987E+03  1.555E+00  8.218E+00  5.547E-02  1.777E+00
   1    4    8     3     4    1.2712E+00  2.2567E-01   1.0456E+00  0.000E+00  0.000E+00  0.000E+00  1.06682E+03  1.364E+00  7.455E+00  6.709E-02  1.682E+00
   1    5    8     3     5    1.0456E+00  1.5790E-01   8.8768E-01  0.000E+00  0.000E+00  0.000E+00  1.06362E+03  1.164E+00  6.655E+00  4.991E-02  1.582E+00
   1    6    8     3     6    8.8768E-01  5.5980E-02   8.3170E-01  0.000E+00  0.000E+00  0.000E+00  1.06158E+03  1.036E+00  6.145E+00  1.844E-02  1.518E+00
   1    5   10     4     1    1.0000E+01  0.0000E+00   1.0000E+01  0.000E+00  0.000E+00  0.000E+00  1.07837E+03  6.385E-01  1.000E+01  0.000E+00  1.213E+00
   1    5    9     4     2    1.0000E+01  0.0000E+00   1.0000E+01  0.000E+00  0.000E+00  0.000E+00  1.07155E+03  6.385E-01  1.000E+01  0.000E+00  1.213E+00
   1    6    8     4     3    1.0000E+01  0.0000E+00   1.0000E+01  0.000E+00  0.000E+00  0.000E+00  1.06382E+03  6.385E-01  1.000E+01  0.000E+00  1.213E+00
   1    6    8     5     1    1.0832E+01  2.3262E-01   1.0599E+01  0.000E+00  0.000E+00  0.000E+00  1.05869E+03  6.881E-01  1.577E+01  6.307E-02  1.229E+00
   1    7    7     5     2    1.0599E+01  2.8607E-01   1.0313E+01  0.000E+00  0.000E+00  0.000E+00  1.05418E+03  6.822E-01  1.554E+01  7.769E-02  1.227E+00
   1    8    7     5     3    1.0313E+01  1.9716E-01   1.0116E+01  0.000E+00  0.000E+00  0.000E+00  1.04993E+03  6.766E-01  1.532E+01  5.363E-02  1.226E+00
   1    8    6     5     4    1.0116E+01  1.3929E-01   9.9766E+00  0.000E+00  0.000E+00  0.000E+00  1.04692E+03  6.727E-01  1.517E+01  3.792E-02  1.224E+00
   1    9    6     6     1    1.4378E+01  0.0000E+00   1.4378E+01  0.000E+00  0.000E+00  0.000E+00  1.04360E+03  8.762E-01  1.200E+01  0.000E+00  1.292E+00
   1   10    7     6     2    1.4378E+01  0.0000E+00   1.4378E+01  0.000E+00  0.000E+00  0.000E+00  1.03906E+03  8.762E-01  1.200E+01  0.000E+00  1.292E+00
   1   11    7     6     3    1.4378E+01  0.0000E+00   1.4378E+01  0.000E+00  0.000E+00  0.000E+00  1.03451E+03  8.762E-01  1.200E+01  0.000E+00  1.292E+00
   1   12    7     6     4    1.4378E+01  0.0000E+00   1.4378E+01  0.000E+00  0.000E+00  0.000E+00  1.02997E+03  8.762E-01  1.200E+01  0.000E+00  1.292E+00
   1   13    7     6     5    1.4378E+01  0.0000E+00   1.4378E+01  0.000E+00  0.000E+00  0.000E+00  1.02679E+03  8.762E-01  1.200E+01  0.000E+00  1.088E-01
   1   14    9     7     1    1.5000E+02  1.2734E+00   1.4873E+02  0.000E+00  0.000E+00  0.000E+00  1.03987E+03  2.288E+00  5.530E+01  5.593E-01  7.589E-01
   1   13    8     7     2    1.4873E+02  1.9313E+00   1.4680E+02  0.000E+00  0.000E+00  0.000E+00  1.03478E+03  2.279E+00  5.526E+01  6.148E-01  1.047E+00
   1   13    7     7     3    1.4680E+02  1.8036E+00   1.4499E+02  0.000E+00  0.000E+00  0.000E+00  1.02969E+03  2.269E+00  5.521E+01  5.584E-01  1.077E+00
   1   13    6     8     1    1.5937E+02  1.2824E+00   1.5809E+02  0.000E+00  0.000E+00  0.000E+00  1.02475E+03  2.877E+00  4.172E+01  4.251E-01  1.005E+00
   1   13    5     8     2    1.5809E+02  6.0668E-01   1.5748E+02  0.000E+00  0.000E+00  0.000E+00  1.01850E+03  2.871E+00  4.163E+01  4.242E-01  4.767E-01
   1   13    4     8     3    1.5748E+02 -1.0120E+00   1.5849E+02  0.000E+00  0.000E+00  0.000E+00  1.01225E+03  2.872E+00  4.165E+01  4.244E+00 -7.948E-02
   1   13    3     8     4    1.5849E+02 -2.7737E+00   1.6127E+02  0.000E+00  0.000E+00  0.000E+00  1.00601E+03  2.885E+00  4.183E+01  4.263E+00 -2.169E-01
   1   13    2     8     5    1.6127E+02 -1.7657E+00   1.6303E+02  0.000E+00  0.000E+00  0.000E+00  9.99775E+02  2.900E+00  4.205E+01  4.286E+00 -1.373E-01
   1   13    1     8     6    1.6303E+02 -1.0931E+00   1.6413E+02  0.000E+00  0.000E+00  0.000E+00  9.94785E+02  2.910E+00  4.219E+01  2.580E+00 -1.412E-01
   1    6    8     9     1    2.9558E-07  0.0000E+00   2.9558E-07  0.000E+00  0.000E+00  0.000E+00  1.07850E+03  1.637E-05  4.000E+00  0.000E+00  1.000E+00



 UBDSV3 SAVING "     NETRECHARGE" ON UNIT 100 AT TIME STEP    10, STRESS PERIOD  10
 UBDSV3 SAVING "    NETDISCHARGE" ON UNIT 101 AT TIME STEP    10, STRESS PERIOD  10
 UBDSV3 SAVING "           GW ET" ON UNIT  61 AT TIME STEP    10, STRESS PERIOD  10
 UBDSV3 SAVING "    UZF RECHARGE" ON UNIT  61 AT TIME STEP    10, STRESS PERIOD  10
 UBDSV3 SAVING " SURFACE LEAKAGE" ON UNIT  61 AT TIME STEP    10, STRESS PERIOD  10
 UBDSV3 SAVING "       HORT+DUNN" ON UNIT  61 AT TIME STEP    10, STRESS PERIOD  10
 UBDSV3 SAVING "  STORAGE CHANGE" ON UNIT  61 AT TIME STEP    10, STRESS PERIOD  10


UNSATURATED ZONE PACKAGE VOLUMETRIC BUDGET FOR  TIME STEP    10 STRESS PERIOD   10
  ------------------------------------------------------------------------------



     CUMULATIVE VOLUMES      L**3       RATES FOR THIS TIME STEP      L**3/T
     ------------------                 ------------------------

           IN:                                      IN:
           ---                                      ---
        INFILTRATION =    38820914.1782          INFILTRATION =           0.8475

          OUT:                                     OUT:
          ----                                     ----
              UZF ET =   565085812.5598                UZF ET =           1.5925
        UZF RECHARGE =   583764160.9794          UZF RECHARGE =          23.3467

            IN - OUT = -1110029059.3610              IN - OUT =         -24.0917

          STORAGE:                                 STORAGE:
          --------                                 --------
      STORAGE CHANGE = -1110020379.6497        STORAGE CHANGE =         -24.0917

 PERCENT DISCREPANCY IS DIFFERENCE BETWEEN IN-OUT MINUS CHANGE IN STORAGE
 DIVIDED BY THE AVERAGE OF IN AND OUT TIMES 100

 PERCENT DISCREPANCY =          -0.00     PERCENT DISCREPANCY =           0.00






1
  VOLUMETRIC BUDGET FOR ENTIRE MODEL AT END OF TIME STEP   10, STRESS PERIOD  10
  ------------------------------------------------------------------------------

     CUMULATIVE VOLUMES      L**3       RATES FOR THIS TIME STEP      L**3/T
     ------------------                 ------------------------

           IN:                                      IN:
           ---                                      ---
             STORAGE =    28224830.0000               STORAGE =       3.6800E-03
       CONSTANT HEAD =           0.0000         CONSTANT HEAD =           0.0000
               WELLS =           0.0000                 WELLS =           0.0000
     HEAD DEP BOUNDS =     7011616.0000       HEAD DEP BOUNDS =           0.2815
      STREAM LEAKAGE =   257892704.0000        STREAM LEAKAGE =           9.5193
        UZF RECHARGE =   583764160.0000          UZF RECHARGE =          23.3467
               GW ET =           0.0000                 GW ET =           0.0000
     SURFACE LEAKAGE =           0.0000       SURFACE LEAKAGE =           0.0000

            TOTAL IN =   876893312.0000              TOTAL IN =          33.1512

          OUT:                                     OUT:
          ----                                     ----
             STORAGE =   614593280.0000               STORAGE =          24.2050
       CONSTANT HEAD =           0.0000         CONSTANT HEAD =           0.0000
               WELLS =     1016027.8750                 WELLS =           0.0000
     HEAD DEP BOUNDS =     7046631.5000       HEAD DEP BOUNDS =           0.2739
      STREAM LEAKAGE =   187136128.0000        STREAM LEAKAGE =           6.6444
        UZF RECHARGE =           0.0000          UZF RECHARGE =           0.0000
               GW ET =    67058268.0000                 GW ET =           2.0242
     SURFACE LEAKAGE =           0.0000       SURFACE LEAKAGE =           0.0000

           TOTAL OUT =   876850304.0000             TOTAL OUT =          33.1475

            IN - OUT =       43008.0000              IN - OUT =       3.7079E-03

 PERCENT DISCREPANCY =           0.00     PERCENT DISCREPANCY =           0.01






         TIME SUMMARY AT END OF TIME STEP   10 IN STRESS PERIOD   10
                    SECONDS     MINUTES      HOURS       DAYS        YEARS
                    -----------------------------------------------------------
   TIME STEP LENGTH  87600.      1460.0      24.333      1.0139     2.77588E-03
 STRESS PERIOD TIME 8.76000E+05  14600.      243.33      10.139     2.77588E-02
         TOTAL TIME 2.45280E+07 4.08800E+05  6813.3      283.89     0.77725    
1
 
 SOLVING FOR HEAD 
                                                   Max.-Head-Change                         Max.-Flux-Residual
  Residual-Control   Outer-Iter.   Inner-Iter.     Column Row Layer    Maximum-Head-Change  Column Row Layer    Maximum-Flux-Residual          L2-NORM 
          0                 1           2             7    6     1      -0.2840237792E+00       7    6    1        -0.1549582850E+02      0.1561898739E+02
          0                 2           2             7    6     1       0.3187454608E+00       7    6    1         0.1757035479E+02      0.1757526669E+02
          0                 3           2             7    6     1      -0.2700056793E-01       7    6    1        -0.1501824858E+01      0.1512714627E+01
          0                 4           2             7    6     1       0.9204388096E-03       7    6    1         0.5139532940E-01      0.8423072530E-01
          0                 5           2             8    2     1       0.2376739052E-03       8    2    1         0.6171317059E-02      0.2981439833E-01
          0                 6           1             8    2     1       0.1068467933E-03       8    2    1         0.2774333859E-02      0.1323100334E-01
          0                 7           1             8    2     1       0.4803307791E-04       8    2    1         0.1247206949E-02      0.5924203490E-02
          0                 8           1             8    2     1       0.2159326264E-04       8    2    1         0.5606828253E-03      0.2653670917E-02
          0                 9           1             8    2     1       0.9707223650E-05       8    2    1         0.2520547621E-03      0.1188780671E-02

    ------------------------------------------------
       NWT REQUIRED            9 OUTER ITERATIONS 
       AND A TOTAL OF         14 INNER ITERATIONS.
    ------------------------------------------------

 NO OUTPUT CONTROL FOR STRESS PERIOD   10   TIME STEP   11
 
 SOLVING FOR HEAD 
                                                   Max.-Head-Change                         Max.-Flux-Residual
  Residual-Control   Outer-Iter.   Inner-Iter.     Column Row Layer    Maximum-Head-Change  Column Row Layer    Maximum-Flux-Residual          L2-NORM 
          0                 1           2             7    6     1      -0.2842644778E+00       7    6    1        -0.1550923330E+02      0.1562717053E+02
          0                 2           2             7    6     1       0.3187627116E+00       7    6    1         0.1757126702E+02      0.1757611800E+02
          0                 3           2             7    6     1      -0.2216000675E-01       7    6    1        -0.1233006953E+01      0.1246230677E+01
          0                 4           2             7    6     1      -0.3911072516E-02       7    6    1        -0.2174277734E+00      0.2274763715E+00
          0                 5           2             8    2     1       0.2376432149E-03       8    2    1         0.6170533014E-02      0.2975341632E-01
          0                 6           1             8    2     1       0.1068327257E-03       8    2    1         0.2773974334E-02      0.1321334962E-01
          0                 7           1             8    2     1       0.4802663193E-04       8    2    1         0.1247042159E-02      0.5916639940E-02
          0                 8           1             8    2     1       0.2159031058E-04       8    2    1         0.5606073282E-03      0.2650364119E-02
          0                 9           1             8    2     1       0.9705872050E-05       8    2    1         0.2520201881E-03      0.1187314249E-02

    ------------------------------------------------
       NWT REQUIRED            9 OUTER ITERATIONS 
       AND A TOTAL OF         14 INNER ITERATIONS.
    ------------------------------------------------

 NO OUTPUT CONTROL FOR STRESS PERIOD   10   TIME STEP   12
 
 SOLVING FOR HEAD 
                                                   Max.-Head-Change                         Max.-Flux-Residual
  Residual-Control   Outer-Iter.   Inner-Iter.     Column Row Layer    Maximum-Head-Change  Column Row Layer    Maximum-Flux-Residual          L2-NORM 
          0                 1           2             7    6     1      -0.2824032018E+00       7    6    1        -0.1540799277E+02      0.1552212349E+02
          0                 2           2             7    6     1       0.3165065891E+00       7    6    1         0.1744685629E+02      0.1745168444E+02
          0                 3           2             7    6     1      -0.1721752122E-01       7    6    1        -0.9585124813E+00      0.9753772075E+00
          0                 4           2             7    6     1      -0.3036339882E-02       7    6    1        -0.1688863442E+00      0.1816977410E+00
          0                 5           2             7    6     1      -0.5361237362E-03       7    6    1        -0.2979529789E-01      0.4192227650E-01
          0                 6           1             8    2     1       0.1068182435E-03       7    6    1        -0.5262896098E-02      0.1420509354E-01
          0                 7           1             8    2     1       0.4801999986E-04       8    2    1         0.1246872538E-02      0.5982483558E-02
          0                 8           1             8    2     1       0.2158727423E-04       8    2    1         0.5605296457E-03      0.2652366373E-02
          0                 9           1             8    2     1       0.9704482558E-05       8    2    1         0.2519846254E-03      0.1186277521E-02

    ------------------------------------------------
       NWT REQUIRED            9 OUTER ITERATIONS 
       AND A TOTAL OF         14 INNER ITERATIONS.
    ------------------------------------------------

 NO OUTPUT CONTROL FOR STRESS PERIOD   10   TIME STEP   13
 
 SOLVING FOR HEAD 
                                                   Max.-Head-Change                         Max.-Flux-Residual
  Residual-Control   Outer-Iter.   Inner-Iter.     Column Row Layer    Maximum-Head-Change  Column Row Layer    Maximum-Flux-Residual          L2-NORM 
          0                 1           2             7    6     1      -0.1961565571E-01       7    6    1        -0.1078443599E+01      0.2138236807E+01
          0                 2           2             7    6     1       0.2980825312E-01       7    6    1         0.1639006513E+01      0.1689448835E+01
          0                 3           2             7    6     1       0.2682673916E-02       7    6    1         0.1471549520E+00      0.2121242792E+00
          0                 4           2             8    2     1       0.5284824602E-03       7    6    1         0.2504029085E-01      0.7069627001E-01
          0                 5           2             8    2     1       0.2375791481E-03       8    2    1         0.6168895080E-02      0.2975052167E-01
          0                 6           1             8    2     1       0.1068033838E-03       8    2    1         0.2773223931E-02      0.1319571830E-01
          0                 7           1             8    2     1       0.4801319959E-04       8    2    1         0.1246698513E-02      0.5902356851E-02
          0                 8           1             8    2     1       0.2158416323E-04       8    2    1         0.5604500106E-03      0.2643505949E-02
          0                 9           1             8    2     1       0.9703059802E-05       8    2    1         0.2519481969E-03      0.1184229414E-02

    ------------------------------------------------
       NWT REQUIRED            9 OUTER ITERATIONS 
       AND A TOTAL OF         14 INNER ITERATIONS.
    ------------------------------------------------

 NO OUTPUT CONTROL FOR STRESS PERIOD   10   TIME STEP   14
 
 SOLVING FOR HEAD 
                                                   Max.-Head-Change                         Max.-Flux-Residual
  Residual-Control   Outer-Iter.   Inner-Iter.     Column Row Layer    Maximum-Head-Change  Column Row Layer    Maximum-Flux-Residual          L2-NORM 
          0                 1           2             5   13     1       0.1195799783E-01       5   13    1         0.6440888000E+00      0.1906429939E+01
          0                 2           2             8    2     1       0.2614654329E-02       7    6    1         0.9555117063E-01      0.4210180752E+00
          0                 3           2             8    2     1       0.1175419802E-02       8    2    1         0.3052047208E-01      0.1526576549E+00
          0                 4           2             8    2     1       0.5284095886E-03       8    2    1         0.1372049539E-01      0.6598872627E-01
          0                 5           2             8    2     1       0.2375457889E-03       8    2    1         0.6168041626E-02      0.2940026878E-01
          0                 6           1             8    2     1       0.1067881182E-03       8    2    1         0.2772833257E-02      0.1315880281E-01
          0                 7           1             8    2     1       0.4800621599E-04       8    2    1         0.1246519744E-02      0.5893801487E-02
          0                 8           1             8    2     1       0.2158096993E-04       8    2    1         0.5603682441E-03      0.2640217651E-02
          0                 9           1             8    2     1       0.9701600154E-05       8    2    1         0.2519108109E-03      0.1182799634E-02

    ------------------------------------------------
       NWT REQUIRED            9 OUTER ITERATIONS 
       AND A TOTAL OF         14 INNER ITERATIONS.
    ------------------------------------------------

 OUTPUT CONTROL FOR STRESS PERIOD   10   TIME STEP   15
    PRINT BUDGET
    PRINT HEAD FOR ALL LAYERS
    SAVE HEAD FOR ALL LAYERS
    SAVE BUDGET
 UBUDSV SAVING "         STORAGE" ON UNIT102 AT TIME STEP    15, STRESS PERIOD   10
 UBUDSV SAVING "   CONSTANT HEAD" ON UNIT102 AT TIME STEP    15, STRESS PERIOD   10
 UBUDSV SAVING "FLOW RIGHT FACE " ON UNIT102 AT TIME STEP    15, STRESS PERIOD   10
 UBUDSV SAVING "FLOW FRONT FACE " ON UNIT102 AT TIME STEP    15, STRESS PERIOD   10

  HEAD DEP BOUNDS   PERIOD   10   STEP    15
 BOUNDARY      1   LAYER   1   ROW    13   COL     1   RATE   -0.275874    
 BOUNDARY      2   LAYER   1   ROW    14   COL     9   RATE    0.281452    



 STREAM LISTING     PERIOD     10   STEP       15

 LAYER ROW COL. STREAM  RCH.  FLOW INTO     FLOW TO   FLOW OUT OF   OVRLND.     DIRECT     STREAM       STREAM     STREAM     STREAM   STREAMBED  STREAMBED
                SEG.NO.  NO.  STRM. RCH.    AQUIFER    STRM. RCH.    RUNOFF     PRECIP       ET          HEAD       DEPTH      WIDTH   CONDCTNC.   GRADIENT

   1    1    1     1     1    7.0000E+00  1.1914E-01   6.8809E+00  0.000E+00  0.000E+00  0.000E+00  1.09385E+03  7.984E-01  6.970E+00  3.137E-02  1.266E+00
   1    2    2     1     2    6.8809E+00  1.8311E-01   6.6977E+00  0.000E+00  0.000E+00  0.000E+00  1.08885E+03  7.942E-01  6.894E+00  4.826E-02  1.265E+00
   1    3    3     1     3    6.6977E+00  1.5480E-01   6.5429E+00  0.000E+00  0.000E+00  0.000E+00  1.08321E+03  7.894E-01  6.809E+00  4.085E-02  1.263E+00
   1    3    4     1     4    6.5429E+00  1.4143E-01   6.4015E+00  0.000E+00  0.000E+00  0.000E+00  1.07819E+03  7.852E-01  6.732E+00  3.737E-02  1.262E+00
   1    4    5     2     1    4.4015E+00  0.0000E+00   4.4015E+00  0.000E+00  0.000E+00  0.000E+00  1.07236E+03  4.259E-01  1.200E+01  0.000E+00  1.142E+00
   1    5    6     2     2    4.4015E+00  0.0000E+00   4.4015E+00  0.000E+00  0.000E+00  0.000E+00  1.06694E+03  4.259E-01  1.200E+01  0.000E+00  1.142E+00
   1    6    6     2     3    4.4015E+00  0.0000E+00   4.4015E+00  0.000E+00  0.000E+00  0.000E+00  1.06222E+03  4.259E-01  1.200E+01  0.000E+00  1.142E+00
   1    7    6     2     4    4.4015E+00  0.0000E+00   4.4015E+00  0.000E+00  0.000E+00  0.000E+00  1.05750E+03  4.259E-01  1.200E+01  0.000E+00  1.142E+00
   1    8    6     2     5    4.4015E+00  0.0000E+00   4.4015E+00  0.000E+00  0.000E+00  0.000E+00  1.05278E+03  4.259E-01  1.200E+01  0.000E+00  1.142E+00
   1    3    5     3     1    2.0000E+00  2.8252E-01   1.7175E+00  0.000E+00  0.000E+00  0.000E+00  1.07555E+03  1.909E+00  9.636E+00  7.227E-02  1.955E+00
   1    3    6     3     2    1.7175E+00  2.4905E-01   1.4684E+00  0.000E+00  0.000E+00  0.000E+00  1.07264E+03  1.727E+00  8.909E+00  6.682E-02  1.864E+00
   1    3    7     3     3    1.4684E+00  1.9718E-01   1.2712E+00  0.000E+00  0.000E+00  0.000E+00  1.06987E+03  1.555E+00  8.218E+00  5.547E-02  1.777E+00
   1    4    8     3     4    1.2712E+00  2.2567E-01   1.0456E+00  0.000E+00  0.000E+00  0.000E+00  1.06682E+03  1.364E+00  7.455E+00  6.709E-02  1.682E+00
   1    5    8     3     5    1.0456E+00  1.5790E-01   8.8768E-01  0.000E+00  0.000E+00  0.000E+00  1.06362E+03  1.164E+00  6.655E+00  4.991E-02  1.582E+00
   1    6    8     3     6    8.8768E-01  5.5980E-02   8.3170E-01  0.000E+00  0.000E+00  0.000E+00  1.06158E+03  1.036E+00  6.145E+00  1.844E-02  1.518E+00
   1    5   10     4     1    1.0000E+01  0.0000E+00   1.0000E+01  0.000E+00  0.000E+00  0.000E+00  1.07837E+03  6.385E-01  1.000E+01  0.000E+00  1.213E+00
   1    5    9     4     2    1.0000E+01  0.0000E+00   1.0000E+01  0.000E+00  0.000E+00  0.000E+00  1.07155E+03  6.385E-01  1.000E+01  0.000E+00  1.213E+00
   1    6    8     4     3    1.0000E+01  0.0000E+00   1.0000E+01  0.000E+00  0.000E+00  0.000E+00  1.06382E+03  6.385E-01  1.000E+01  0.000E+00  1.213E+00
   1    6    8     5     1    1.0832E+01  2.3262E-01   1.0599E+01  0.000E+00  0.000E+00  0.000E+00  1.05869E+03  6.881E-01  1.577E+01  6.307E-02  1.229E+00
   1    7    7     5     2    1.0599E+01  2.8607E-01   1.0313E+01  0.000E+00  0.000E+00  0.000E+00  1.05418E+03  6.822E-01  1.554E+01  7.769E-02  1.227E+00
   1    8    7     5     3    1.0313E+01  1.9716E-01   1.0116E+01  0.000E+00  0.000E+00  0.000E+00  1.04993E+03  6.766E-01  1.532E+01  5.363E-02  1.226E+00
   1    8    6     5     4    1.0116E+01  1.3929E-01   9.9766E+00  0.000E+00  0.000E+00  0.000E+00  1.04692E+03  6.727E-01  1.517E+01  3.792E-02  1.224E+00
   1    9    6     6     1    1.4378E+01  0.0000E+00   1.4378E+01  0.000E+00  0.000E+00  0.000E+00  1.04360E+03  8.762E-01  1.200E+01  0.000E+00  1.292E+00
   1   10    7     6     2    1.4378E+01  0.0000E+00   1.4378E+01  0.000E+00  0.000E+00  0.000E+00  1.03906E+03  8.762E-01  1.200E+01  0.000E+00  1.292E+00
   1   11    7     6     3    1.4378E+01  0.0000E+00   1.4378E+01  0.000E+00  0.000E+00  0.000E+00  1.03451E+03  8.762E-01  1.200E+01  0.000E+00  1.292E+00
   1   12    7     6     4    1.4378E+01  0.0000E+00   1.4378E+01  0.000E+00  0.000E+00  0.000E+00  1.02997E+03  8.762E-01  1.200E+01  0.000E+00  1.292E+00
   1   13    7     6     5    1.4378E+01  0.0000E+00   1.4378E+01  0.000E+00  0.000E+00  0.000E+00  1.02679E+03  8.762E-01  1.200E+01  0.000E+00  1.087E-01
   1   14    9     7     1    1.5000E+02  1.2725E+00   1.4873E+02  0.000E+00  0.000E+00  0.000E+00  1.03987E+03  2.288E+00  5.530E+01  5.593E-01  7.584E-01
   1   13    8     7     2    1.4873E+02  1.9310E+00   1.4680E+02  0.000E+00  0.000E+00  0.000E+00  1.03478E+03  2.279E+00  5.526E+01  6.148E-01  1.047E+00
   1   13    7     7     3    1.4680E+02  1.8035E+00   1.4499E+02  0.000E+00  0.000E+00  0.000E+00  1.02969E+03  2.269E+00  5.521E+01  5.584E-01  1.077E+00
   1   13    6     8     1    1.5937E+02  1.2742E+00   1.5810E+02  0.000E+00  0.000E+00  0.000E+00  1.02475E+03  2.877E+00  4.172E+01  4.251E-01  9.991E-01
   1   13    5     8     2    1.5810E+02  5.8201E-01   1.5751E+02  0.000E+00  0.000E+00  0.000E+00  1.01850E+03  2.871E+00  4.163E+01  4.242E-01  4.573E-01
   1   13    4     8     3    1.5751E+02 -1.1376E+00   1.5865E+02  0.000E+00  0.000E+00  0.000E+00  1.01225E+03  2.873E+00  4.166E+01  4.245E+00 -8.933E-02
   1   13    3     8     4    1.5865E+02 -2.8996E+00   1.6155E+02  0.000E+00  0.000E+00  0.000E+00  1.00601E+03  2.887E+00  4.185E+01  4.265E+00 -2.266E-01
   1   13    2     8     5    1.6155E+02 -1.9066E+00   1.6346E+02  0.000E+00  0.000E+00  0.000E+00  9.99778E+02  2.903E+00  4.209E+01  4.289E+00 -1.482E-01
   1   13    1     8     6    1.6346E+02 -1.2182E+00   1.6468E+02  0.000E+00  0.000E+00  0.000E+00  9.94788E+02  2.913E+00  4.224E+01  2.583E+00 -1.572E-01
   1    6    8     9     1    0.0000E+00  0.0000E+00   0.0000E+00  0.000E+00  0.000E+00  0.000E+00  1.07850E+03  0.000E+00  4.000E+00  0.000E+00  1.000E+00



 UBDSV3 SAVING "     NETRECHARGE" ON UNIT 100 AT TIME STEP    15, STRESS PERIOD  10
 UBDSV3 SAVING "    NETDISCHARGE" ON UNIT 101 AT TIME STEP    15, STRESS PERIOD  10
 UBDSV3 SAVING "           GW ET" ON UNIT  61 AT TIME STEP    15, STRESS PERIOD  10
 UBDSV3 SAVING "    UZF RECHARGE" ON UNIT  61 AT TIME STEP    15, STRESS PERIOD  10
 UBDSV3 SAVING " SURFACE LEAKAGE" ON UNIT  61 AT TIME STEP    15, STRESS PERIOD  10
 UBDSV3 SAVING "       HORT+DUNN" ON UNIT  61 AT TIME STEP    15, STRESS PERIOD  10
 UBDSV3 SAVING "  STORAGE CHANGE" ON UNIT  61 AT TIME STEP    15, STRESS PERIOD  10


UNSATURATED ZONE PACKAGE VOLUMETRIC BUDGET FOR  TIME STEP    15 STRESS PERIOD   10
  ------------------------------------------------------------------------------



     CUMULATIVE VOLUMES      L**3       RATES FOR THIS TIME STEP      L**3/T
     ------------------                 ------------------------

           IN:                                      IN:
           ---                                      ---
        INFILTRATION =    39192119.2819          INFILTRATION =           0.8475

          OUT:                                     OUT:
          ----                                     ----
              UZF ET =   565783327.5207                UZF ET =           1.5925
        UZF RECHARGE =   594085997.6406          UZF RECHARGE =          23.7192

            IN - OUT = -1120677205.8795              IN - OUT =         -24.4642

          STORAGE:                                 STORAGE:
          --------                                 --------
      STORAGE CHANGE = -1120668526.1907        STORAGE CHANGE =         -24.4642

 PERCENT DISCREPANCY IS DIFFERENCE BETWEEN IN-OUT MINUS CHANGE IN STORAGE
 DIVIDED BY THE AVERAGE OF IN AND OUT TIMES 100

 PERCENT DISCREPANCY =          -0.00     PERCENT DISCREPANCY =           0.00






1
              HEAD IN LAYER   1 AT END OF TIME STEP    15 IN STRESS PERIOD   10
  -----------------------------------------------------------------------------

           1       2       3       4       5       6       7       8       9      10
 ...................................................................................
   1  1023.32 1022.40 6999.00 6999.00 6999.00 6999.00 6999.00 6999.00 6999.00 6999.00
   2  1023.40 1022.92 1022.56 6999.00 6999.00 1023.88 1024.00 1023.93 6999.00 6999.00
   3  6999.00 1022.94 1022.60 1022.47 1023.04 1023.60 1024.04 1023.91 6999.00 6999.00
   4  1023.29 1022.87 1022.36 1021.96 1021.87 1021.93 1022.55 1023.58 1023.17 6999.00
   5  1023.18 1022.62 1022.02 1021.57 1021.53 1021.58 1021.71 1021.99 1021.94 1021.81
   6  1023.02 1022.36 1021.71 1021.26 1021.25 1021.35 1021.46 1021.90 1022.34 1022.92
   7  1022.85 1021.98 1021.35 1020.94 1020.98 1021.18 1021.51 1021.74 1022.90 6999.00
   8  6999.00 1021.32 1020.86 1020.54 1020.66 1020.96 1021.35 1022.16 1023.61 6999.00
   9  6999.00 1020.16 1020.01 1019.94 1020.20 1020.65 1021.16 1022.53 1024.49 6999.00
  10  6999.00 1018.29 1018.55 1019.02 1019.62 1020.47 1021.27 1023.11 1025.50 1026.26
  11  6999.00 1014.79 1015.66 1017.50 1018.87 1020.44 1021.89 1024.55 1027.57 6999.00
  12  1002.73 1007.99 1011.51 1015.00 1017.88 1020.75 1023.24 1027.57 1031.40 6999.00
  13   995.26 1000.22 1006.69 1012.52 1017.12 1021.76 1026.46 1031.64 1034.79 6999.00
  14  6999.00 1007.31 1009.94 1014.33 1018.70 1023.10 1028.04 1033.56 1037.59 6999.00
  15  6999.00 6999.00 1014.23 1016.80 1020.06 1022.86 6999.00 6999.00 6999.00 6999.00

 HEAD WILL BE SAVED ON UNIT   62 AT END OF TIME STEP   15, STRESS PERIOD   10
1
  VOLUMETRIC BUDGET FOR ENTIRE MODEL AT END OF TIME STEP   15, STRESS PERIOD  10
  ------------------------------------------------------------------------------

     CUMULATIVE VOLUMES      L**3       RATES FOR THIS TIME STEP      L**3/T
     ------------------                 ------------------------

           IN:                                      IN:
           ---                                      ---
             STORAGE =    28224928.0000               STORAGE =           0.0000
       CONSTANT HEAD =           0.0000         CONSTANT HEAD =           0.0000
               WELLS =           0.0000                 WELLS =           0.0000
     HEAD DEP BOUNDS =     7134901.0000       HEAD DEP BOUNDS =           0.2815
      STREAM LEAKAGE =   262053024.0000        STREAM LEAKAGE =           9.4852
        UZF RECHARGE =   594086016.0000          UZF RECHARGE =          23.7192
               GW ET =           0.0000                 GW ET =           0.0000
     SURFACE LEAKAGE =           0.0000       SURFACE LEAKAGE =           0.0000

            TOTAL IN =   891498880.0000              TOTAL IN =          33.4859

          OUT:                                     OUT:
          ----                                     ----
             STORAGE =   625132224.0000               STORAGE =          23.9987
       CONSTANT HEAD =           0.0000         CONSTANT HEAD =           0.0000
               WELLS =     1016027.8750                 WELLS =           0.0000
     HEAD DEP BOUNDS =     7167138.5000       HEAD DEP BOUNDS =           0.2759
      STREAM LEAKAGE =   190188288.0000        STREAM LEAKAGE =           7.1620
        UZF RECHARGE =           0.0000          UZF RECHARGE =           0.0000
               GW ET =    67950592.0000                 GW ET =           2.0457
     SURFACE LEAKAGE =           0.0000       SURFACE LEAKAGE =           0.0000

           TOTAL OUT =   891454272.0000             TOTAL OUT =          33.4822

            IN - OUT =       44608.0000              IN - OUT =       3.6926E-03

 PERCENT DISCREPANCY =           0.01     PERCENT DISCREPANCY =           0.01






         TIME SUMMARY AT END OF TIME STEP   15 IN STRESS PERIOD   10
                    SECONDS     MINUTES      HOURS       DAYS        YEARS
                    -----------------------------------------------------------
   TIME STEP LENGTH  87600.      1460.0      24.333      1.0139     2.77588E-03
 STRESS PERIOD TIME 1.31400E+06  21900.      365.00      15.208     4.16381E-02
         TOTAL TIME 2.49660E+07 4.16100E+05  6935.0      288.96     0.79112    
1
 
 SOLVING FOR HEAD 
                                                   Max.-Head-Change                         Max.-Flux-Residual
  Residual-Control   Outer-Iter.   Inner-Iter.     Column Row Layer    Maximum-Head-Change  Column Row Layer    Maximum-Flux-Residual          L2-NORM 
          0                 1           2             5   13     1       0.1154918627E-01       5   13    1         0.6220665533E+00      0.1874271037E+01
          0                 2           2             8    2     1       0.2614297275E-02       7    6    1         0.9180220946E-01      0.4190181936E+00
          0                 3           2             8    2     1       0.1175256308E-02       8    2    1         0.3051629013E-01      0.1524333053E+00
          0                 4           2             8    2     1       0.5283347553E-03       8    2    1         0.1371858064E-01      0.6591106156E-01
          0                 5           2             8    2     1       0.2375115497E-03       8    2    1         0.6167165278E-02      0.2936646222E-01
          0                 6           1             8    2     1       0.1067724582E-03       8    2    1         0.2772432321E-02      0.1314377418E-01
          0                 7           1             8    2     1       0.4799905618E-04       8    2    1         0.1246336381E-02      0.5887105462E-02
          0                 8           1             8    2     1       0.2157769748E-04       8    2    1         0.5602844133E-03      0.2637233125E-02
          0                 9           1             8    2     1       0.9700105115E-05       8    2    1         0.2518724982E-03      0.1181469629E-02

    ------------------------------------------------
       NWT REQUIRED            9 OUTER ITERATIONS 
       AND A TOTAL OF         14 INNER ITERATIONS.
    ------------------------------------------------

 NO OUTPUT CONTROL FOR STRESS PERIOD   10   TIME STEP   16
 
 SOLVING FOR HEAD 
                                                   Max.-Head-Change                         Max.-Flux-Residual
  Residual-Control   Outer-Iter.   Inner-Iter.     Column Row Layer    Maximum-Head-Change  Column Row Layer    Maximum-Flux-Residual          L2-NORM 
          0                 1           2             5   13     1       0.1115534016E-01       5   13    1         0.6008328814E+00      0.1845223390E+01
          0                 2           2             8    2     1       0.2613930574E-02       7    6    1         0.8834290876E-01      0.4172192531E+00
          0                 3           2             8    2     1       0.1175088499E-02       8    2    1         0.3051199566E-01      0.1522182255E+00
          0                 4           2             8    2     1       0.5282579919E-03       8    2    1         0.1371661555E-01      0.6583411285E-01
          0                 5           2             8    2     1       0.2374764470E-03       8    2    1         0.6166266412E-02      0.2933279606E-01
          0                 6           1             8    2     1       0.1067564118E-03       8    2    1         0.2772021308E-02      0.1312879079E-01
          0                 7           1             8    2     1       0.4799172330E-04       8    2    1         0.1246148505E-02      0.5880425397E-02
          0                 8           1             8    2     1       0.2157434762E-04       8    2    1         0.5601985630E-03      0.2634253612E-02
          0                 9           1             8    2     1       0.9698575186E-05       8    2    1         0.2518332793E-03      0.1180140545E-02

    ------------------------------------------------
       NWT REQUIRED            9 OUTER ITERATIONS 
       AND A TOTAL OF         14 INNER ITERATIONS.
    ------------------------------------------------

 NO OUTPUT CONTROL FOR STRESS PERIOD   10   TIME STEP   17
 
 SOLVING FOR HEAD 
                                                   Max.-Head-Change                         Max.-Flux-Residual
  Residual-Control   Outer-Iter.   Inner-Iter.     Column Row Layer    Maximum-Head-Change  Column Row Layer    Maximum-Flux-Residual          L2-NORM 
          0                 1           2             5   13     1       0.1077631703E-01       5   13    1         0.5803790122E+00      0.1819033218E+01
          0                 2           2             8    2     1       0.2613554210E-02       7    6    1         0.8515047358E-01      0.4156070638E+00
          0                 3           2             8    2     1       0.1174916343E-02       8    2    1         0.3050758838E-01      0.1520145443E+00
          0                 4           2             8    2     1       0.5281792715E-03       8    2    1         0.1371459970E-01      0.6575927003E-01
          0                 5           2             8    2     1       0.2374404638E-03       8    2    1         0.6165344707E-02      0.2929993517E-01
          0                 6           1             8    2     1       0.1067399694E-03       8    2    1         0.2771600022E-02      0.1311415634E-01
          0                 7           1             8    2     1       0.4798421222E-04       8    2    1         0.1245956009E-02      0.5873898534E-02
          0                 8           1             8    2     1       0.2157091735E-04       8    2    1         0.5601106353E-03      0.2631342034E-02
          0                 9           1             8    2     1       0.9697009240E-05       8    2    1         0.2517931323E-03      0.1178842919E-02

    ------------------------------------------------
       NWT REQUIRED            9 OUTER ITERATIONS 
       AND A TOTAL OF         14 INNER ITERATIONS.
    ------------------------------------------------

 NO OUTPUT CONTROL FOR STRESS PERIOD   10   TIME STEP   18
 
 SOLVING FOR HEAD 
                                                   Max.-Head-Change                         Max.-Flux-Residual
  Residual-Control   Outer-Iter.   Inner-Iter.     Column Row Layer    Maximum-Head-Change  Column Row Layer    Maximum-Flux-Residual          L2-NORM 
          0                 1           2             5   13     1       0.1041178230E-01       5   13    1         0.5607028911E+00      0.1795345696E+01
          0                 2           2             8    2     1       0.2613168379E-02       7    6    1         0.8220211090E-01      0.4141480288E+00
          0                 3           2             8    2     1       0.1174739973E-02       8    2    1         0.3050307079E-01      0.1518194357E+00
          0                 4           2             8    2     1       0.5280986774E-03       8    2    1         0.1371253478E-01      0.6568592729E-01
          0                 5           2             8    2     1       0.2374036468E-03       8    2    1         0.6164401167E-02      0.2926763663E-01
          0                 6           1             8    2     1       0.1067231560E-03       8    2    1         0.2771169024E-02      0.1309976233E-01
          0                 7           1             8    2     1       0.4797653656E-04       8    2    1         0.1245759195E-02      0.5867476793E-02
          0                 8           1             8    2     1       0.2156741417E-04       8    2    1         0.5600207851E-03      0.2628478757E-02
          0                 9           1             8    2     1       0.9695410781E-05       8    2    1         0.2517521244E-03      0.1177564217E-02

    ------------------------------------------------
       NWT REQUIRED            9 OUTER ITERATIONS 
       AND A TOTAL OF         14 INNER ITERATIONS.
    ------------------------------------------------

 NO OUTPUT CONTROL FOR STRESS PERIOD   10   TIME STEP   19
 
 SOLVING FOR HEAD 
                                                   Max.-Head-Change                         Max.-Flux-Residual
  Residual-Control   Outer-Iter.   Inner-Iter.     Column Row Layer    Maximum-Head-Change  Column Row Layer    Maximum-Flux-Residual          L2-NORM 
          0                 1           2             5   13     1       0.1006045564E-01       5   13    1         0.5417701101E+00      0.1773764746E+01
          0                 2           2             8    2     1       0.2612773079E-02       7    6    1         0.7947709690E-01      0.4127994293E+00
          0                 3           2             8    2     1       0.1174559349E-02       8    2    1         0.3049844269E-01      0.1516288150E+00
          0                 4           2             8    2     1       0.5280161707E-03       8    2    1         0.1371042018E-01      0.6561318881E-01
          0                 5           2             8    2     1       0.2373659706E-03       8    2    1         0.6163435305E-02      0.2923556134E-01
          0                 6           1             8    2     1       0.1067059564E-03       8    2    1         0.2770727992E-02      0.1308546127E-01
          0                 7           1             8    2     1       0.4796868695E-04       8    2    1         0.1245557874E-02      0.5861093505E-02
          0                 8           1             8    2     1       0.2156383283E-04       8    2    1         0.5599289125E-03      0.2625626670E-02
          0                 9           1             8    2     1       0.9693777305E-05       8    2    1         0.2517102116E-03      0.1176289872E-02

    ------------------------------------------------
       NWT REQUIRED            9 OUTER ITERATIONS 
       AND A TOTAL OF         14 INNER ITERATIONS.
    ------------------------------------------------

 NO OUTPUT CONTROL FOR STRESS PERIOD   10   TIME STEP   20
 
 SOLVING FOR HEAD 
                                                   Max.-Head-Change                         Max.-Flux-Residual
  Residual-Control   Outer-Iter.   Inner-Iter.     Column Row Layer    Maximum-Head-Change  Column Row Layer    Maximum-Flux-Residual          L2-NORM 
          0                 1           2             5   13     1       0.9722303248E-02       5   13    1         0.5235148910E+00      0.1754290646E+01
          0                 2           2             8    2     1       0.2612368402E-02       7    6    1         0.7695761184E-01      0.4115833734E+00
          0                 3           2             8    2     1       0.1174374527E-02       8    2    1         0.3049370523E-01      0.1514452057E+00
          0                 4           2             8    2     1       0.5279317858E-03       8    2    1         0.1370825664E-01      0.6554129263E-01
          0                 5           2             8    2     1       0.2373274541E-03       8    2    1         0.6162447542E-02      0.2920373672E-01
          0                 6           1             8    2     1       0.1066883810E-03       8    2    1         0.2770277159E-02      0.1307126094E-01
          0                 7           1             8    2     1       0.4796066927E-04       8    2    1         0.1245352160E-02      0.5854752802E-02
          0                 8           1             8    2     1       0.2156017633E-04       8    2    1         0.5598350723E-03      0.2622795070E-02
          0                 9           1             8    2     1       0.9692109815E-05       8    2    1         0.2516674120E-03      0.1175024981E-02

    ------------------------------------------------
       NWT REQUIRED            9 OUTER ITERATIONS 
       AND A TOTAL OF         14 INNER ITERATIONS.
    ------------------------------------------------

 NO OUTPUT CONTROL FOR STRESS PERIOD   10   TIME STEP   21
 
 SOLVING FOR HEAD 
                                                   Max.-Head-Change                         Max.-Flux-Residual
  Residual-Control   Outer-Iter.   Inner-Iter.     Column Row Layer    Maximum-Head-Change  Column Row Layer    Maximum-Flux-Residual          L2-NORM 
          0                 1           2             5   13     1       0.9397133160E-02       5   13    1         0.5059522551E+00      0.1736688858E+01
          0                 2           2             8    2     1       0.2611932132E-02       7    6    1         0.7462742562E-01      0.4104787470E+00
          0                 3           2             8    2     1       0.1174175526E-02       8    2    1         0.3048859908E-01      0.1512683717E+00
          0                 4           2             8    2     1       0.5278410369E-03       8    2    1         0.1370592762E-01      0.6547077936E-01
          0                 5           2             8    2     1       0.2372860808E-03       8    2    1         0.6161385507E-02      0.2917245940E-01
          0                 6           1             8    2     1       0.1066695232E-03       8    2    1         0.2769792995E-02      0.1305729974E-01
          0                 7           1             8    2     1       0.4795207658E-04       8    2    1         0.1245131496E-02      0.5848517986E-02
          0                 8           1             8    2     1       0.2155626146E-04       8    2    1         0.5597345209E-03      0.2620010317E-02
          0                 9           1             8    2     1       0.9690326774E-05       8    2    1         0.2516216047E-03      0.1173781191E-02

    ------------------------------------------------
       NWT REQUIRED            9 OUTER ITERATIONS 
       AND A TOTAL OF         14 INNER ITERATIONS.
    ------------------------------------------------

 NO OUTPUT CONTROL FOR STRESS PERIOD   10   TIME STEP   22
 
 SOLVING FOR HEAD 
                                                   Max.-Head-Change                         Max.-Flux-Residual
  Residual-Control   Outer-Iter.   Inner-Iter.     Column Row Layer    Maximum-Head-Change  Column Row Layer    Maximum-Flux-Residual          L2-NORM 
          0                 1           2             5   13     1       0.9084485824E-02       5   13    1         0.4890637516E+00      0.1720726525E+01
          0                 2           2             8    2     1       0.2611509019E-02       7    6    1         0.7246967481E-01      0.4094642418E+00
          0                 3           2             8    2     1       0.1173982459E-02       8    2    1         0.3048364661E-01      0.1510959869E+00
          0                 4           2             8    2     1       0.5277529637E-03       8    2    1         0.1370366791E-01      0.6540109020E-01
          0                 5           2             8    2     1       0.2372459143E-03       8    2    1         0.6160354721E-02      0.2914150707E-01
          0                 6           1             8    2     1       0.1066512093E-03       8    2    1         0.2769322913E-02      0.1304347789E-01
          0                 7           1             8    2     1       0.4794372812E-04       8    2    1         0.1244917174E-02      0.5842343219E-02
          0                 8           1             8    2     1       0.2155245728E-04       8    2    1         0.5596368364E-03      0.2617253075E-02
          0                 9           1             8    2     1       0.9688593504E-05       8    2    1         0.2515770900E-03      0.1172552405E-02

    ------------------------------------------------
       NWT REQUIRED            9 OUTER ITERATIONS 
       AND A TOTAL OF         14 INNER ITERATIONS.
    ------------------------------------------------

 NO OUTPUT CONTROL FOR STRESS PERIOD   10   TIME STEP   23
 
 SOLVING FOR HEAD 
                                                   Max.-Head-Change                         Max.-Flux-Residual
  Residual-Control   Outer-Iter.   Inner-Iter.     Column Row Layer    Maximum-Head-Change  Column Row Layer    Maximum-Flux-Residual          L2-NORM 
          0                 1           2             5   13     1       0.8783239558E-02       5   13    1         0.4728285416E+00      0.1706035435E+01
          0                 2           2             8    2     1       0.2611098847E-02       7    6    1         0.7047101395E-01      0.4085040754E+00
          0                 3           2             8    2     1       0.1173795163E-02       8    2    1         0.3047884497E-01      0.1509264588E+00
          0                 4           2             8    2     1       0.5276674647E-03       8    2    1         0.1370147547E-01      0.6533209944E-01
          0                 5           2             8    2     1       0.2372068962E-03       8    2    1         0.6159353952E-02      0.2911084116E-01
          0                 6           1             8    2     1       0.1066334084E-03       8    2    1         0.2768866236E-02      0.1302977843E-01
          0                 7           1             8    2     1       0.4793560927E-04       8    2    1         0.1244708837E-02      0.5836221206E-02
          0                 8           1             8    2     1       0.2154875513E-04       8    2    1         0.5595418162E-03      0.2614515000E-02
          0                 9           1             8    2     1       0.9686905755E-05       8    2    1         0.2515337666E-03      0.1171325212E-02

    ------------------------------------------------
       NWT REQUIRED            9 OUTER ITERATIONS 
       AND A TOTAL OF         14 INNER ITERATIONS.
    ------------------------------------------------

 NO OUTPUT CONTROL FOR STRESS PERIOD   10   TIME STEP   24
 
 SOLVING FOR HEAD 
                                                   Max.-Head-Change                         Max.-Flux-Residual
  Residual-Control   Outer-Iter.   Inner-Iter.     Column Row Layer    Maximum-Head-Change  Column Row Layer    Maximum-Flux-Residual          L2-NORM 
          0                 1           2             5   13     1       0.8493392816E-02       5   13    1         0.4571656404E+00      0.1692791444E+01
          0                 2           2             8    2     1       0.2610635116E-02       7    6    1         0.6862041846E-01      0.4076338582E+00
          0                 3           2             8    2     1       0.1173583902E-02       8    2    1         0.3047341868E-01      0.1507607353E+00
          0                 4           2             8    2     1       0.5275712430E-03       8    2    1         0.1369900354E-01      0.6526327902E-01
          0                 5           2             8    2     1       0.2371630802E-03       8    2    1         0.6158228116E-02      0.2908017189E-01
          0                 6           1             8    2     1       0.1066134601E-03       8    2    1         0.2768353581E-02      0.1301607046E-01
          0                 7           1             8    2     1       0.4792652923E-04       8    2    1         0.1244475448E-02      0.5830093320E-02
          0                 8           1             8    2     1       0.2154462280E-04       8    2    1         0.5594355839E-03      0.2611776070E-02
          0                 9           1             8    2     1       0.9685025670E-05       8    2    1         0.2514854228E-03      0.1170101116E-02

    ------------------------------------------------
       NWT REQUIRED            9 OUTER ITERATIONS 
       AND A TOTAL OF         14 INNER ITERATIONS.
    ------------------------------------------------

 NO OUTPUT CONTROL FOR STRESS PERIOD   10   TIME STEP   25
 
 SOLVING FOR HEAD 
                                                   Max.-Head-Change                         Max.-Flux-Residual
  Residual-Control   Outer-Iter.   Inner-Iter.     Column Row Layer    Maximum-Head-Change  Column Row Layer    Maximum-Flux-Residual          L2-NORM 
          0                 1           2             5   13     1       0.8214839889E-02       5   13    1         0.4421121585E+00      0.1680652604E+01
          0                 2           2             8    2     1       0.2610162312E-02       8    2    1         0.6777578793E-01      0.4068177233E+00
          0                 3           2             8    2     1       0.1173368517E-02       8    2    1         0.3046788627E-01      0.1505990607E+00
          0                 4           2             8    2     1       0.5274731462E-03       8    2    1         0.1369648335E-01      0.6519577944E-01
          0                 5           2             8    2     1       0.2371184122E-03       8    2    1         0.6157080356E-02      0.2905007874E-01
          0                 6           1             8    2     1       0.1065931253E-03       8    2    1         0.2767830978E-02      0.1300261750E-01
          0                 7           1             8    2     1       0.4791727337E-04       8    2    1         0.1244237539E-02      0.5824078616E-02
          0                 8           1             8    2     1       0.2154041093E-04       8    2    1         0.5593273060E-03      0.2609086621E-02
          0                 9           1             8    2     1       0.9683109569E-05       8    2    1         0.2514361523E-03      0.1168898260E-02

    ------------------------------------------------
       NWT REQUIRED            9 OUTER ITERATIONS 
       AND A TOTAL OF         14 INNER ITERATIONS.
    ------------------------------------------------

 NO OUTPUT CONTROL FOR STRESS PERIOD   10   TIME STEP   26
 
 SOLVING FOR HEAD 
                                                   Max.-Head-Change                         Max.-Flux-Residual
  Residual-Control   Outer-Iter.   Inner-Iter.     Column Row Layer    Maximum-Head-Change  Column Row Layer    Maximum-Flux-Residual          L2-NORM 
          0                 1           2             5   13     1       0.7947017695E-02       5   13    1         0.4276373590E+00      0.1669720842E+01
          0                 2           2             8    2     1       0.2609725112E-02       8    2    1         0.6776457038E-01      0.4060750898E+00
          0                 3           2             8    2     1       0.1173169134E-02       8    2    1         0.3046276944E-01      0.1504420376E+00
          0                 4           2             8    2     1       0.5273822431E-03       8    2    1         0.1369414997E-01      0.6512909457E-01
          0                 5           2             8    2     1       0.2370769773E-03       8    2    1         0.6156016553E-02      0.2902028425E-01
          0                 6           1             8    2     1       0.1065742434E-03       8    2    1         0.2767346108E-02      0.1298929201E-01
          0                 7           1             8    2     1       0.4790867156E-04       8    2    1         0.1244016600E-02      0.5818119537E-02
          0                 8           1             8    2     1       0.2153649269E-04       8    2    1         0.5592266479E-03      0.2606421663E-02
          0                 9           1             8    2     1       0.9681325027E-05       8    2    1         0.2513903036E-03      0.1167706540E-02

    ------------------------------------------------
       NWT REQUIRED            9 OUTER ITERATIONS 
       AND A TOTAL OF         14 INNER ITERATIONS.
    ------------------------------------------------

 NO OUTPUT CONTROL FOR STRESS PERIOD   10   TIME STEP   27
 
 SOLVING FOR HEAD 
                                                   Max.-Head-Change                         Max.-Flux-Residual
  Residual-Control   Outer-Iter.   Inner-Iter.     Column Row Layer    Maximum-Head-Change  Column Row Layer    Maximum-Flux-Residual          L2-NORM 
          0                 1           2             5   13     1       0.7689688636E-02       5   13    1         0.4137308894E+00      0.1659744749E+01
          0                 2           2             8    2     1       0.2609234344E-02       8    2    1         0.6775195956E-01      0.4053753462E+00
          0                 3           2             8    2     1       0.1172945719E-02       8    2    1         0.3045702755E-01      0.1502869324E+00
          0                 4           2             8    2     1       0.5272805572E-03       8    2    1         0.1369153615E-01      0.6506264972E-01
          0                 5           2             8    2     1       0.2370307052E-03       8    2    1         0.6154826938E-02      0.2899056352E-01
          0                 6           1             8    2     1       0.1065531916E-03       8    2    1         0.2766804791E-02      0.1297599395E-01
          0                 7           1             8    2     1       0.4789909530E-04       8    2    1         0.1243770325E-02      0.5812170780E-02
          0                 8           1             8    2     1       0.2153213750E-04       8    2    1         0.5591146280E-03      0.2603760566E-02
          0                 9           1             8    2     1       0.9679344898E-05       8    2    1         0.2513393618E-03      0.1166515873E-02

    ------------------------------------------------
       NWT REQUIRED            9 OUTER ITERATIONS 
       AND A TOTAL OF         14 INNER ITERATIONS.
    ------------------------------------------------

 NO OUTPUT CONTROL FOR STRESS PERIOD   10   TIME STEP   28
 
 SOLVING FOR HEAD 
                                                   Max.-Head-Change                         Max.-Flux-Residual
  Residual-Control   Outer-Iter.   Inner-Iter.     Column Row Layer    Maximum-Head-Change  Column Row Layer    Maximum-Flux-Residual          L2-NORM 
          0                 1           2             5   13     1       0.7442293748E-02       5   13    1         0.4003567427E+00      0.1650669651E+01
          0                 2           2             8    2     1       0.2608735007E-02       8    2    1         0.6773912305E-01      0.4047310506E+00
          0                 3           2             8    2     1       0.1172718519E-02       8    2    1         0.3045118595E-01      0.1501341671E+00
          0                 4           2             8    2     1       0.5271771998E-03       8    2    1         0.1368887830E-01      0.6499658373E-01
          0                 5           2             8    2     1       0.2369836953E-03       8    2    1         0.6153617884E-02      0.2896098404E-01
          0                 6           1             8    2     1       0.1065318138E-03       8    2    1         0.2766254891E-02      0.1296275498E-01
          0                 7           1             8    2     1       0.4788937524E-04       8    2    1         0.1243520266E-02      0.5806247232E-02
          0                 8           1             8    2     1       0.2152771929E-04       8    2    1         0.5590009405E-03      0.2601110437E-02
          0                 9           1             8    2     1       0.9677336506E-05       8    2    1         0.2512876780E-03      0.1165330142E-02

    ------------------------------------------------
       NWT REQUIRED            9 OUTER ITERATIONS 
       AND A TOTAL OF         14 INNER ITERATIONS.
    ------------------------------------------------

 NO OUTPUT CONTROL FOR STRESS PERIOD   10   TIME STEP   29
 
 SOLVING FOR HEAD 
                                                   Max.-Head-Change                         Max.-Flux-Residual
  Residual-Control   Outer-Iter.   Inner-Iter.     Column Row Layer    Maximum-Head-Change  Column Row Layer    Maximum-Flux-Residual          L2-NORM 
          0                 1           2             5   13     1       0.7202747133E-02       5   13    1         0.3875064965E+00      0.1641886514E+01
          0                 2           2             8    2     1       0.2608271374E-02       8    2    1         0.6772721814E-01      0.4040525042E+00
          0                 3           2             8    2     1       0.1172507274E-02       8    2    1         0.3044576067E-01      0.1499787899E+00
          0                 4           2             8    2     1       0.5270809734E-03       8    2    1         0.1368640648E-01      0.6493101668E-01
          0                 5           2             8    2     1       0.2369398716E-03       8    2    1         0.6152491958E-02      0.2893176560E-01
          0                 6           1             8    2     1       0.1065118600E-03       8    2    1         0.2765742144E-02      0.1294968745E-01
          0                 7           1             8    2     1       0.4788029196E-04       8    2    1         0.1243286813E-02      0.5800402200E-02
          0                 8           1             8    2     1       0.2152358496E-04       8    2    1         0.5588946722E-03      0.2598496045E-02
          0                 9           1             8    2     1       0.9675455421E-05       8    2    1         0.2512393181E-03      0.1164159754E-02

    ------------------------------------------------
       NWT REQUIRED            9 OUTER ITERATIONS 
       AND A TOTAL OF         14 INNER ITERATIONS.
    ------------------------------------------------

 NO OUTPUT CONTROL FOR STRESS PERIOD   10   TIME STEP   30



 STREAM LISTING     PERIOD     10   STEP       30

 LAYER ROW COL. STREAM  RCH.  FLOW INTO     FLOW TO   FLOW OUT OF   OVRLND.     DIRECT     STREAM       STREAM     STREAM     STREAM   STREAMBED  STREAMBED
                SEG.NO.  NO.  STRM. RCH.    AQUIFER    STRM. RCH.    RUNOFF     PRECIP       ET          HEAD       DEPTH      WIDTH   CONDCTNC.   GRADIENT

   1    1    1     1     1    7.0000E+00  1.1914E-01   6.8809E+00  0.000E+00  0.000E+00  0.000E+00  1.09385E+03  7.984E-01  6.970E+00  3.137E-02  1.266E+00
   1    2    2     1     2    6.8809E+00  1.8311E-01   6.6977E+00  0.000E+00  0.000E+00  0.000E+00  1.08885E+03  7.942E-01  6.894E+00  4.826E-02  1.265E+00
   1    3    3     1     3    6.6977E+00  1.5480E-01   6.5429E+00  0.000E+00  0.000E+00  0.000E+00  1.08321E+03  7.894E-01  6.809E+00  4.085E-02  1.263E+00
   1    3    4     1     4    6.5429E+00  1.4143E-01   6.4015E+00  0.000E+00  0.000E+00  0.000E+00  1.07819E+03  7.852E-01  6.732E+00  3.737E-02  1.262E+00
   1    4    5     2     1    4.4015E+00  0.0000E+00   4.4015E+00  0.000E+00  0.000E+00  0.000E+00  1.07236E+03  4.259E-01  1.200E+01  0.000E+00  1.142E+00
   1    5    6     2     2    4.4015E+00  0.0000E+00   4.4015E+00  0.000E+00  0.000E+00  0.000E+00  1.06694E+03  4.259E-01  1.200E+01  0.000E+00  1.142E+00
   1    6    6     2     3    4.4015E+00  0.0000E+00   4.4015E+00  0.000E+00  0.000E+00  0.000E+00  1.06222E+03  4.259E-01  1.200E+01  0.000E+00  1.142E+00
   1    7    6     2     4    4.4015E+00  0.0000E+00   4.4015E+00  0.000E+00  0.000E+00  0.000E+00  1.05750E+03  4.259E-01  1.200E+01  0.000E+00  1.142E+00
   1    8    6     2     5    4.4015E+00  0.0000E+00   4.4015E+00  0.000E+00  0.000E+00  0.000E+00  1.05278E+03  4.259E-01  1.200E+01  0.000E+00  1.142E+00
   1    3    5     3     1    2.0000E+00  2.8252E-01   1.7175E+00  0.000E+00  0.000E+00  0.000E+00  1.07555E+03  1.909E+00  9.636E+00  7.227E-02  1.955E+00
   1    3    6     3     2    1.7175E+00  2.4905E-01   1.4684E+00  0.000E+00  0.000E+00  0.000E+00  1.07264E+03  1.727E+00  8.909E+00  6.682E-02  1.864E+00
   1    3    7     3     3    1.4684E+00  1.9718E-01   1.2712E+00  0.000E+00  0.000E+00  0.000E+00  1.06987E+03  1.555E+00  8.218E+00  5.547E-02  1.777E+00
   1    4    8     3     4    1.2712E+00  2.2567E-01   1.0456E+00  0.000E+00  0.000E+00  0.000E+00  1.06682E+03  1.364E+00  7.455E+00  6.709E-02  1.682E+00
   1    5    8     3     5    1.0456E+00  1.5790E-01   8.8768E-01  0.000E+00  0.000E+00  0.000E+00  1.06362E+03  1.164E+00  6.655E+00  4.991E-02  1.582E+00
   1    6    8     3     6    8.8768E-01  5.5980E-02   8.3170E-01  0.000E+00  0.000E+00  0.000E+00  1.06158E+03  1.036E+00  6.145E+00  1.844E-02  1.518E+00
   1    5   10     4     1    1.0000E+01  0.0000E+00   1.0000E+01  0.000E+00  0.000E+00  0.000E+00  1.07837E+03  6.385E-01  1.000E+01  0.000E+00  1.213E+00
   1    5    9     4     2    1.0000E+01  0.0000E+00   1.0000E+01  0.000E+00  0.000E+00  0.000E+00  1.07155E+03  6.385E-01  1.000E+01  0.000E+00  1.213E+00
   1    6    8     4     3    1.0000E+01  0.0000E+00   1.0000E+01  0.000E+00  0.000E+00  0.000E+00  1.06382E+03  6.385E-01  1.000E+01  0.000E+00  1.213E+00
   1    6    8     5     1    1.0832E+01  2.3262E-01   1.0599E+01  0.000E+00  0.000E+00  0.000E+00  1.05869E+03  6.881E-01  1.577E+01  6.307E-02  1.229E+00
   1    7    7     5     2    1.0599E+01  2.8607E-01   1.0313E+01  0.000E+00  0.000E+00  0.000E+00  1.05418E+03  6.822E-01  1.554E+01  7.769E-02  1.227E+00
   1    8    7     5     3    1.0313E+01  1.9716E-01   1.0116E+01  0.000E+00  0.000E+00  0.000E+00  1.04993E+03  6.766E-01  1.532E+01  5.363E-02  1.226E+00
   1    8    6     5     4    1.0116E+01  1.3929E-01   9.9766E+00  0.000E+00  0.000E+00  0.000E+00  1.04692E+03  6.727E-01  1.517E+01  3.792E-02  1.224E+00
   1    9    6     6     1    1.4378E+01  0.0000E+00   1.4378E+01  0.000E+00  0.000E+00  0.000E+00  1.04360E+03  8.762E-01  1.200E+01  0.000E+00  1.292E+00
   1   10    7     6     2    1.4378E+01  0.0000E+00   1.4378E+01  0.000E+00  0.000E+00  0.000E+00  1.03906E+03  8.762E-01  1.200E+01  0.000E+00  1.292E+00
   1   11    7     6     3    1.4378E+01  0.0000E+00   1.4378E+01  0.000E+00  0.000E+00  0.000E+00  1.03451E+03  8.762E-01  1.200E+01  0.000E+00  1.292E+00
   1   12    7     6     4    1.4378E+01  0.0000E+00   1.4378E+01  0.000E+00  0.000E+00  0.000E+00  1.02997E+03  8.762E-01  1.200E+01  0.000E+00  1.292E+00
   1   13    7     6     5    1.4378E+01  0.0000E+00   1.4378E+01  0.000E+00  0.000E+00  0.000E+00  1.02679E+03  8.762E-01  1.200E+01  0.000E+00  1.070E-01
   1   14    9     7     1    1.5000E+02  1.2701E+00   1.4873E+02  0.000E+00  0.000E+00  0.000E+00  1.03987E+03  2.288E+00  5.530E+01  5.593E-01  7.570E-01
   1   13    8     7     2    1.4873E+02  1.9300E+00   1.4680E+02  0.000E+00  0.000E+00  0.000E+00  1.03478E+03  2.279E+00  5.526E+01  6.148E-01  1.046E+00
   1   13    7     7     3    1.4680E+02  1.8006E+00   1.4500E+02  0.000E+00  0.000E+00  0.000E+00  1.02969E+03  2.269E+00  5.521E+01  5.584E-01  1.075E+00
   1   13    6     8     1    1.5938E+02  1.2549E+00   1.5812E+02  0.000E+00  0.000E+00  0.000E+00  1.02475E+03  2.877E+00  4.172E+01  4.252E-01  9.839E-01
   1   13    5     8     2    1.5812E+02  5.2897E-01   1.5759E+02  0.000E+00  0.000E+00  0.000E+00  1.01850E+03  2.871E+00  4.163E+01  4.243E-01  4.156E-01
   1   13    4     8     3    1.5759E+02 -1.3440E+00   1.5894E+02  0.000E+00  0.000E+00  0.000E+00  1.01225E+03  2.874E+00  4.167E+01  4.247E+00 -1.055E-01
   1   13    3     8     4    1.5894E+02 -3.0861E+00   1.6202E+02  0.000E+00  0.000E+00  0.000E+00  1.00601E+03  2.889E+00  4.189E+01  4.269E+00 -2.410E-01
   1   13    2     8     5    1.6202E+02 -2.1308E+00   1.6415E+02  0.000E+00  0.000E+00  0.000E+00  9.99782E+02  2.907E+00  4.215E+01  4.295E+00 -1.654E-01
   1   13    1     8     6    1.6415E+02 -1.4614E+00   1.6562E+02  0.000E+00  0.000E+00  0.000E+00  9.94794E+02  2.919E+00  4.232E+01  2.587E+00 -1.883E-01
   1    6    8     9     1    0.0000E+00  0.0000E+00   0.0000E+00  0.000E+00  0.000E+00  0.000E+00  1.07850E+03  0.000E+00  4.000E+00  0.000E+00  1.000E+00





UNSATURATED ZONE PACKAGE VOLUMETRIC BUDGET FOR  TIME STEP    30 STRESS PERIOD   10
  ------------------------------------------------------------------------------



     CUMULATIVE VOLUMES      L**3       RATES FOR THIS TIME STEP      L**3/T
     ------------------                 ------------------------

           IN:                                      IN:
           ---                                      ---
        INFILTRATION =    40305734.2819          INFILTRATION =           0.8475

          OUT:                                     OUT:
          ----                                     ----
              UZF ET =   567875864.5910                UZF ET =           1.5924
        UZF RECHARGE =   625222125.5860          UZF RECHARGE =          23.6596

            IN - OUT = -1152792255.8951              IN - OUT =         -24.4045

          STORAGE:                                 STORAGE:
          --------                                 --------
      STORAGE CHANGE = -1152783576.2632        STORAGE CHANGE =         -24.4045

 PERCENT DISCREPANCY IS DIFFERENCE BETWEEN IN-OUT MINUS CHANGE IN STORAGE
 DIVIDED BY THE AVERAGE OF IN AND OUT TIMES 100

 PERCENT DISCREPANCY =          -0.00     PERCENT DISCREPANCY =           0.00






1
  VOLUMETRIC BUDGET FOR ENTIRE MODEL AT END OF TIME STEP   30, STRESS PERIOD  10
  ------------------------------------------------------------------------------

     CUMULATIVE VOLUMES      L**3       RATES FOR THIS TIME STEP      L**3/T
     ------------------                 ------------------------

           IN:                                      IN:
           ---                                      ---
             STORAGE =    28224928.0000               STORAGE =           0.0000
       CONSTANT HEAD =           0.0000         CONSTANT HEAD =           0.0000
               WELLS =           0.0000                 WELLS =           0.0000
     HEAD DEP BOUNDS =     7504611.5000       HEAD DEP BOUNDS =           0.2813
      STREAM LEAKAGE =   274458144.0000        STREAM LEAKAGE =           9.4065
        UZF RECHARGE =   625222016.0000          UZF RECHARGE =          23.6596
               GW ET =           0.0000                 GW ET =           0.0000
     SURFACE LEAKAGE =           0.0000       SURFACE LEAKAGE =           0.0000

            TOTAL IN =   935409664.0000              TOTAL IN =          33.3474

          OUT:                                     OUT:
          ----                                     ----
             STORAGE =   655851008.0000               STORAGE =          22.9462
       CONSTANT HEAD =           0.0000         CONSTANT HEAD =           0.0000
               WELLS =     1016027.8750                 WELLS =           0.0000
     HEAD DEP BOUNDS =     7532543.0000       HEAD DEP BOUNDS =           0.2796
      STREAM LEAKAGE =   200285168.0000        STREAM LEAKAGE =           8.0223
        UZF RECHARGE =           0.0000          UZF RECHARGE =           0.0000
               GW ET =    70675792.0000                 GW ET =           2.0956
     SURFACE LEAKAGE =           0.0000       SURFACE LEAKAGE =           0.0000

           TOTAL OUT =   935360512.0000             TOTAL OUT =          33.3438

            IN - OUT =       49152.0000              IN - OUT =       3.6507E-03

 PERCENT DISCREPANCY =           0.01     PERCENT DISCREPANCY =           0.01






         TIME SUMMARY AT END OF TIME STEP   30 IN STRESS PERIOD   10
                    SECONDS     MINUTES      HOURS       DAYS        YEARS
                    -----------------------------------------------------------
   TIME STEP LENGTH  87600.      1460.0      24.333      1.0139     2.77588E-03
 STRESS PERIOD TIME 2.62800E+06  43800.      730.00      30.417     8.32763E-02
         TOTAL TIME 2.62800E+07 4.38000E+05  7300.0      304.17     0.83276    
1
1
                            STRESS PERIOD NO.   11, LENGTH =   2628000.    
                            -----------------------------------------------

                              NUMBER OF TIME STEPS =    30

                               MULTIPLIER FOR DELT =     1.000

                            INITIAL TIME STEP SIZE =   87600.00    

 WELL NO.  LAYER   ROW   COL   STRESS RATE         
 --------------------------------------------------
      1      1      6      4       0.000    
      2      1      6      7       0.000    
      3      1      7      4       0.000    
      4      1      7      5       0.000    
      5      1      8      4       0.000    
      6      1      8      5       0.000    
      7      1      9      4       0.000    
      8      1      9      5       0.000    
      9      1     10      4       0.000    
     10      1     10      5       0.000    

     10 WELLS

 REUSING NON-PARAMETER GHB CELLS FROM LAST STRESS PERIOD

      2 GHB CELLS

 REUSING STREAM SEGMENT DATA FROM LAST STRESS PERIOD



            AREAL INFILTRATION RATE
 READING ON UNIT   19 WITH FORMAT: (10F4.0)            

            1           2           3           4           5           6           7           8           9          10
 ........................................................................................................................
   1   1.0000E-10  2.0000E-10   0.000       0.000       0.000       0.000       0.000       0.000       0.000       0.000    
   2   2.0000E-10  1.0000E-10  2.0000E-10   0.000       0.000      8.0000E-10  8.0000E-10  5.0000E-10   0.000       0.000    
   3    0.000      5.0000E-10  1.0000E-10  1.0000E-10  8.0000E-10  8.0000E-10  5.0000E-10  5.0000E-10   0.000       0.000    
   4   8.0000E-10  5.0000E-10  1.0000E-10  1.0000E-10  1.0000E-10  1.0000E-10  1.0000E-10  1.0000E-10  2.0000E-10   0.000    
   5   8.0000E-10  5.0000E-10  1.0000E-10  1.0000E-10  1.0000E-10  1.0000E-10  1.0000E-10  1.0000E-10  1.0000E-10  1.0000E-10
   6   8.0000E-10  5.0000E-10  5.0000E-10  2.0000E-10  2.0000E-10  1.0000E-10  1.0000E-10  1.0000E-10  1.0000E-10  5.0000E-10
   7   8.0000E-10  5.0000E-10  5.0000E-10  2.0000E-10  2.0000E-10  1.0000E-10  1.0000E-10  2.0000E-10  2.0000E-10   0.000    
   8    0.000      5.0000E-10  5.0000E-10  2.0000E-10  2.0000E-10  1.0000E-10  1.0000E-10  2.0000E-10  5.0000E-10   0.000    
   9    0.000      5.0000E-10  5.0000E-10  2.0000E-10  2.0000E-10  1.0000E-10  1.0000E-10  2.0000E-10  5.0000E-10   0.000    
  10    0.000      5.0000E-10  5.0000E-10  2.0000E-10  2.0000E-10  1.0000E-10  1.0000E-10  2.0000E-10  5.0000E-10  8.0000E-10
  11    0.000      1.0000E-10  1.0000E-10  1.0000E-10  1.0000E-10  1.0000E-10  1.0000E-10  2.0000E-10  5.0000E-10   0.000    
  12   1.0000E-10  1.0000E-10  1.0000E-10  1.0000E-10  1.0000E-10  1.0000E-10  1.0000E-10  1.0000E-10  2.0000E-10   0.000    
  13   1.0000E-10  1.0000E-10  2.0000E-10  2.0000E-10  2.0000E-10  2.0000E-10  2.0000E-10  1.0000E-10  1.0000E-10   0.000    
  14    0.000      2.0000E-10  5.0000E-10  5.0000E-10  5.0000E-10  5.0000E-10  5.0000E-10  2.0000E-10  1.0000E-10   0.000    
  15    0.000       0.000      8.0000E-10  8.0000E-10  8.0000E-10  8.0000E-10   0.000       0.000       0.000       0.000    

                  ET RATE =  1.000000E-09

 USING ET EXTINCTION DEPTH FROM PREVIOUS STRESS PERIOD. CURRENT PERIOD IS:      11

 USING EXTINCTION WATER CONTENT FROM PREVIOUS STRESS PERIOD. CURRENT PERIOD IS:      11
 
 SOLVING FOR HEAD 
                                                   Max.-Head-Change                         Max.-Flux-Residual
  Residual-Control   Outer-Iter.   Inner-Iter.     Column Row Layer    Maximum-Head-Change  Column Row Layer    Maximum-Flux-Residual          L2-NORM 
          0                 1           2             5   13     1       0.1330877331E-01       5   13    1         0.7144832048E+00      0.1957512766E+01
          0                 2           2             8    2     1       0.2607754456E-02       5   13    1        -0.7142298394E-01      0.4160024073E+00
          0                 3           2             8    2     1       0.1172272169E-02       8    2    1         0.3043971384E-01      0.1499858336E+00
          0                 4           2             8    2     1       0.5269740614E-03       8    2    1         0.1368365635E-01      0.6486181386E-01
          0                 5           2             8    2     1       0.2368912636E-03       8    2    1         0.6151241413E-02      0.2890288530E-01
          0                 6           1             8    2     1       0.1064897634E-03       8    2    1         0.2765173591E-02      0.1293705901E-01
          0                 7           1             8    2     1       0.4787024925E-04       8    2    1         0.1243028373E-02      0.5794787019E-02
          0                 8           1             8    2     1       0.2151902118E-04       8    2    1         0.5587772125E-03      0.2595991912E-02
          0                 9           1             8    2     1       0.9673382000E-05       8    2    1         0.2511859442E-03      0.1163043860E-02

    ------------------------------------------------
       NWT REQUIRED            9 OUTER ITERATIONS 
       AND A TOTAL OF         14 INNER ITERATIONS.
    ------------------------------------------------

 NO OUTPUT CONTROL FOR STRESS PERIOD   11   TIME STEP    1
 
 SOLVING FOR HEAD 
                                                   Max.-Head-Change                         Max.-Flux-Residual
  Residual-Control   Outer-Iter.   Inner-Iter.     Column Row Layer    Maximum-Head-Change  Column Row Layer    Maximum-Flux-Residual          L2-NORM 
          0                 1           2             5   13     1       0.1283716133E-01       5   13    1         0.6893614257E+00      0.1905705120E+01
          0                 2           2             8    2     1       0.2607228966E-02       5   13    1        -0.6891166227E-01      0.4131789663E+00
          0                 3           2             8    2     1       0.1172033209E-02       8    2    1         0.3043356695E-01      0.1497708006E+00
          0                 4           2             8    2     1       0.5268654169E-03       8    2    1         0.1368086122E-01      0.6479697537E-01
          0                 5           2             8    2     1       0.2368418761E-03       8    2    1         0.6149970629E-02      0.2887506056E-01
          0                 6           1             8    2     1       0.1064673172E-03       8    2    1         0.2764595941E-02      0.1292470322E-01
          0                 7           1             8    2     1       0.4786004897E-04       8    2    1         0.1242765834E-02      0.5789277141E-02
          0                 8           1             8    2     1       0.2151438662E-04       8    2    1         0.5586579135E-03      0.2593532904E-02
          0                 9           1             8    2     1       0.9671276566E-05       8    2    1         0.2511317432E-03      0.1161946112E-02

    ------------------------------------------------
       NWT REQUIRED            9 OUTER ITERATIONS 
       AND A TOTAL OF         14 INNER ITERATIONS.
    ------------------------------------------------

 NO OUTPUT CONTROL FOR STRESS PERIOD   11   TIME STEP    2
 
 SOLVING FOR HEAD 
                                                   Max.-Head-Change                         Max.-Flux-Residual
  Residual-Control   Outer-Iter.   Inner-Iter.     Column Row Layer    Maximum-Head-Change  Column Row Layer    Maximum-Flux-Residual          L2-NORM 
          0                 1           2             5   13     1       0.1244022120E-01       5   13    1         0.6680046856E+00      0.1876191937E+01
          0                 2           2             8    2     1       0.2606695116E-02       8    2    1         0.6768667501E-01      0.4116625940E+00
          0                 3           2             8    2     1       0.1171790539E-02       8    2    1         0.3042732271E-01      0.1496134500E+00
          0                 4           2             8    2     1       0.5267551264E-03       8    2    1         0.1367802290E-01      0.6473621789E-01
          0                 5           2             8    2     1       0.2367917586E-03       8    2    1         0.6148680682E-02      0.2884794700E-01
          0                 6           1             8    2     1       0.1064445468E-03       8    2    1         0.2764009790E-02      0.1291258932E-01
          0                 7           1             8    2     1       0.4784970513E-04       8    2    1         0.1242499530E-02      0.5783868141E-02
          0                 8           1             8    2     1       0.2150968829E-04       8    2    1         0.5585369411E-03      0.2591116859E-02
          0                 9           1             8    2     1       0.9669143118E-05       8    2    1         0.2510767991E-03      0.1160866784E-02

    ------------------------------------------------
       NWT REQUIRED            9 OUTER ITERATIONS 
       AND A TOTAL OF         14 INNER ITERATIONS.
    ------------------------------------------------

 NO OUTPUT CONTROL FOR STRESS PERIOD   11   TIME STEP    3
 
 SOLVING FOR HEAD 
                                                   Max.-Head-Change                         Max.-Flux-Residual
  Residual-Control   Outer-Iter.   Inner-Iter.     Column Row Layer    Maximum-Head-Change  Column Row Layer    Maximum-Flux-Residual          L2-NORM 
          0                 1           2             5   13     1       0.1205715301E-01       5   13    1         0.6473867895E+00      0.1849387552E+01
          0                 2           2             8    2     1       0.2606197399E-02       8    2    1         0.6767388084E-01      0.4102837174E+00
          0                 3           2             8    2     1       0.1171564061E-02       8    2    1         0.3042150000E-01      0.1494608852E+00
          0                 4           2             8    2     1       0.5266520919E-03       8    2    1         0.1367537347E-01      0.6467615790E-01
          0                 5           2             8    2     1       0.2367448926E-03       8    2    1         0.6147475381E-02      0.2882109992E-01
          0                 6           1             8    2     1       0.1064232334E-03       8    2    1         0.2763461570E-02      0.1290058605E-01
          0                 7           1             8    2     1       0.4784001457E-04       8    2    1         0.1242250226E-02      0.5778504167E-02
          0                 8           1             8    2     1       0.2150528283E-04       8    2    1         0.5584235860E-03      0.2588720830E-02
          0                 9           1             8    2     1       0.9667140479E-05       8    2    1         0.2510252675E-03      0.1159796509E-02

    ------------------------------------------------
       NWT REQUIRED            9 OUTER ITERATIONS 
       AND A TOTAL OF         14 INNER ITERATIONS.
    ------------------------------------------------

 NO OUTPUT CONTROL FOR STRESS PERIOD   11   TIME STEP    4
 
 SOLVING FOR HEAD 
                                                   Max.-Head-Change                         Max.-Flux-Residual
  Residual-Control   Outer-Iter.   Inner-Iter.     Column Row Layer    Maximum-Head-Change  Column Row Layer    Maximum-Flux-Residual          L2-NORM 
          0                 1           2             5   13     1       0.1168777276E-01       5   13    1         0.6274992445E+00      0.1824996886E+01
          0                 2           2             8    2     1       0.2605646472E-02       8    2    1         0.6765970381E-01      0.4090195337E+00
          0                 3           2             8    2     1       0.1171313690E-02       8    2    1         0.3041505629E-01      0.1493101361E+00
          0                 4           2             8    2     1       0.5265383289E-03       8    2    1         0.1367244519E-01      0.6461577700E-01
          0                 5           2             8    2     1       0.2366932096E-03       8    2    1         0.6146144870E-02      0.2879408408E-01
          0                 6           1             8    2     1       0.1063997569E-03       8    2    1         0.2762857124E-02      0.1288850375E-01
          0                 7           1             8    2     1       0.4782935184E-04       8    2    1         0.1241975673E-02      0.5773103963E-02
          0                 8           1             8    2     1       0.2150044168E-04       8    2    1         0.5582989049E-03      0.2586307135E-02
          0                 9           1             8    2     1       0.9664942253E-05       8    2    1         0.2509686467E-03      0.1158717174E-02

    ------------------------------------------------
       NWT REQUIRED            9 OUTER ITERATIONS 
       AND A TOTAL OF         14 INNER ITERATIONS.
    ------------------------------------------------

 OUTPUT CONTROL FOR STRESS PERIOD   11   TIME STEP    5
    PRINT BUDGET
    SAVE BUDGET
 UBUDSV SAVING "         STORAGE" ON UNIT102 AT TIME STEP     5, STRESS PERIOD   11
 UBUDSV SAVING "   CONSTANT HEAD" ON UNIT102 AT TIME STEP     5, STRESS PERIOD   11
 UBUDSV SAVING "FLOW RIGHT FACE " ON UNIT102 AT TIME STEP     5, STRESS PERIOD   11
 UBUDSV SAVING "FLOW FRONT FACE " ON UNIT102 AT TIME STEP     5, STRESS PERIOD   11

  HEAD DEP BOUNDS   PERIOD   11   STEP     5
 BOUNDARY      1   LAYER   1   ROW    13   COL     1   RATE   -0.281289    
 BOUNDARY      2   LAYER   1   ROW    14   COL     9   RATE    0.281237    



 STREAM LISTING     PERIOD     11   STEP        5

 LAYER ROW COL. STREAM  RCH.  FLOW INTO     FLOW TO   FLOW OUT OF   OVRLND.     DIRECT     STREAM       STREAM     STREAM     STREAM   STREAMBED  STREAMBED
                SEG.NO.  NO.  STRM. RCH.    AQUIFER    STRM. RCH.    RUNOFF     PRECIP       ET          HEAD       DEPTH      WIDTH   CONDCTNC.   GRADIENT

   1    1    1     1     1    3.5000E+00  8.3255E-02   3.4167E+00  0.000E+00  0.000E+00  0.000E+00  1.09371E+03  6.654E-01  5.047E+00  2.271E-02  1.222E+00
   1    2    2     1     2    3.4167E+00  1.2792E-01   3.2888E+00  0.000E+00  0.000E+00  0.000E+00  1.08872E+03  6.583E-01  4.995E+00  3.497E-02  1.219E+00
   1    3    3     1     3    3.2888E+00  1.0809E-01   3.1807E+00  0.000E+00  0.000E+00  0.000E+00  1.08307E+03  6.502E-01  4.935E+00  2.961E-02  1.217E+00
   1    3    4     1     4    3.1807E+00  9.8702E-02   3.0820E+00  0.000E+00  0.000E+00  0.000E+00  1.07805E+03  6.428E-01  4.882E+00  2.709E-02  1.214E+00
   1    4    5     2     1    1.0820E+00  0.0000E+00   1.0820E+00  0.000E+00  0.000E+00  0.000E+00  1.07212E+03  1.835E-01  1.200E+01  0.000E+00  1.061E+00
   1    5    6     2     2    1.0820E+00  0.0000E+00   1.0820E+00  0.000E+00  0.000E+00  0.000E+00  1.06669E+03  1.835E-01  1.200E+01  0.000E+00  1.061E+00
   1    6    6     2     3    1.0820E+00  0.0000E+00   1.0820E+00  0.000E+00  0.000E+00  0.000E+00  1.06198E+03  1.835E-01  1.200E+01  0.000E+00  1.061E+00
   1    7    6     2     4    1.0820E+00  0.0000E+00   1.0820E+00  0.000E+00  0.000E+00  0.000E+00  1.05726E+03  1.835E-01  1.200E+01  0.000E+00  1.061E+00
   1    8    6     2     5    1.0820E+00  0.0000E+00   1.0820E+00  0.000E+00  0.000E+00  0.000E+00  1.05254E+03  1.835E-01  1.200E+01  0.000E+00  1.061E+00
   1    3    5     3     1    2.0000E+00  2.8252E-01   1.7175E+00  0.000E+00  0.000E+00  0.000E+00  1.07555E+03  1.909E+00  9.636E+00  7.227E-02  1.955E+00
   1    3    6     3     2    1.7175E+00  2.4905E-01   1.4684E+00  0.000E+00  0.000E+00  0.000E+00  1.07264E+03  1.727E+00  8.909E+00  6.682E-02  1.864E+00
   1    3    7     3     3    1.4684E+00  1.9718E-01   1.2712E+00  0.000E+00  0.000E+00  0.000E+00  1.06987E+03  1.555E+00  8.218E+00  5.547E-02  1.777E+00
   1    4    8     3     4    1.2712E+00  2.2567E-01   1.0456E+00  0.000E+00  0.000E+00  0.000E+00  1.06682E+03  1.364E+00  7.455E+00  6.709E-02  1.682E+00
   1    5    8     3     5    1.0456E+00  1.5790E-01   8.8768E-01  0.000E+00  0.000E+00  0.000E+00  1.06362E+03  1.164E+00  6.655E+00  4.991E-02  1.582E+00
   1    6    8     3     6    8.8768E-01  5.5980E-02   8.3170E-01  0.000E+00  0.000E+00  0.000E+00  1.06158E+03  1.036E+00  6.145E+00  1.844E-02  1.518E+00
   1    5   10     4     1    1.0000E+01  0.0000E+00   1.0000E+01  0.000E+00  0.000E+00  0.000E+00  1.07837E+03  6.385E-01  1.000E+01  0.000E+00  1.213E+00
   1    5    9     4     2    1.0000E+01  0.0000E+00   1.0000E+01  0.000E+00  0.000E+00  0.000E+00  1.07155E+03  6.385E-01  1.000E+01  0.000E+00  1.213E+00
   1    6    8     4     3    1.0000E+01  0.0000E+00   1.0000E+01  0.000E+00  0.000E+00  0.000E+00  1.06382E+03  6.385E-01  1.000E+01  0.000E+00  1.213E+00
   1    6    8     5     1    1.0832E+01  2.3262E-01   1.0599E+01  0.000E+00  0.000E+00  0.000E+00  1.05869E+03  6.881E-01  1.577E+01  6.307E-02  1.229E+00
   1    7    7     5     2    1.0599E+01  2.8607E-01   1.0313E+01  0.000E+00  0.000E+00  0.000E+00  1.05418E+03  6.822E-01  1.554E+01  7.769E-02  1.227E+00
   1    8    7     5     3    1.0313E+01  1.9716E-01   1.0116E+01  0.000E+00  0.000E+00  0.000E+00  1.04993E+03  6.766E-01  1.532E+01  5.363E-02  1.226E+00
   1    8    6     5     4    1.0116E+01  1.3929E-01   9.9766E+00  0.000E+00  0.000E+00  0.000E+00  1.04692E+03  6.727E-01  1.517E+01  3.792E-02  1.224E+00
   1    9    6     6     1    1.1059E+01  0.0000E+00   1.1059E+01  0.000E+00  0.000E+00  0.000E+00  1.04348E+03  7.485E-01  1.200E+01  0.000E+00  1.249E+00
   1   10    7     6     2    1.1059E+01  0.0000E+00   1.1059E+01  0.000E+00  0.000E+00  0.000E+00  1.03893E+03  7.485E-01  1.200E+01  0.000E+00  1.249E+00
   1   11    7     6     3    1.1059E+01  0.0000E+00   1.1059E+01  0.000E+00  0.000E+00  0.000E+00  1.03438E+03  7.485E-01  1.200E+01  0.000E+00  1.249E+00
   1   12    7     6     4    1.1059E+01  0.0000E+00   1.1059E+01  0.000E+00  0.000E+00  0.000E+00  1.02984E+03  7.485E-01  1.200E+01  0.000E+00  1.249E+00
   1   13    7     6     5    1.1059E+01  0.0000E+00   1.1059E+01  0.000E+00  0.000E+00  0.000E+00  1.02666E+03  7.485E-01  1.200E+01  0.000E+00  6.344E-02
   1   14    9     7     1    1.5000E+02  1.2694E+00   1.4873E+02  0.000E+00  0.000E+00  0.000E+00  1.03987E+03  2.288E+00  5.530E+01  5.593E-01  7.565E-01
   1   13    8     7     2    1.4873E+02  1.9296E+00   1.4680E+02  0.000E+00  0.000E+00  0.000E+00  1.03478E+03  2.279E+00  5.526E+01  6.148E-01  1.046E+00
   1   13    7     7     3    1.4680E+02  1.7989E+00   1.4500E+02  0.000E+00  0.000E+00  0.000E+00  1.02969E+03  2.269E+00  5.521E+01  5.584E-01  1.074E+00
   1   13    6     8     1    1.5606E+02  1.2230E+00   1.5484E+02  0.000E+00  0.000E+00  0.000E+00  1.02473E+03  2.855E+00  4.139E+01  4.218E-01  9.665E-01
   1   13    5     8     2    1.5484E+02  4.9152E-01   1.5435E+02  0.000E+00  0.000E+00  0.000E+00  1.01847E+03  2.849E+00  4.131E+01  4.209E-01  3.892E-01
   1   13    4     8     3    1.5435E+02 -1.5442E+00   1.5589E+02  0.000E+00  0.000E+00  0.000E+00  1.01223E+03  2.853E+00  4.136E+01  4.215E+00 -1.221E-01
   1   13    3     8     4    1.5589E+02 -3.2646E+00   1.5915E+02  0.000E+00  0.000E+00  0.000E+00  1.00599E+03  2.869E+00  4.160E+01  4.239E+00 -2.567E-01
   1   13    2     8     5    1.5915E+02 -2.3217E+00   1.6148E+02  0.000E+00  0.000E+00  0.000E+00  9.99763E+02  2.888E+00  4.188E+01  4.267E+00 -1.814E-01
   1   13    1     8     6    1.6148E+02 -1.6105E+00   1.6309E+02  0.000E+00  0.000E+00  0.000E+00  9.94776E+02  2.901E+00  4.207E+01  2.572E+00 -2.087E-01
   1    6    8     9     1    0.0000E+00  0.0000E+00   0.0000E+00  0.000E+00  0.000E+00  0.000E+00  1.07850E+03  0.000E+00  4.000E+00  0.000E+00  1.000E+00



 UBDSV3 SAVING "     NETRECHARGE" ON UNIT 100 AT TIME STEP     5, STRESS PERIOD  11
 UBDSV3 SAVING "    NETDISCHARGE" ON UNIT 101 AT TIME STEP     5, STRESS PERIOD  11
 UBDSV3 SAVING "           GW ET" ON UNIT  61 AT TIME STEP     5, STRESS PERIOD  11
 UBDSV3 SAVING "    UZF RECHARGE" ON UNIT  61 AT TIME STEP     5, STRESS PERIOD  11
 UBDSV3 SAVING " SURFACE LEAKAGE" ON UNIT  61 AT TIME STEP     5, STRESS PERIOD  11
 UBDSV3 SAVING "       HORT+DUNN" ON UNIT  61 AT TIME STEP     5, STRESS PERIOD  11
 UBDSV3 SAVING "  STORAGE CHANGE" ON UNIT  61 AT TIME STEP     5, STRESS PERIOD  11


UNSATURATED ZONE PACKAGE VOLUMETRIC BUDGET FOR  TIME STEP     5 STRESS PERIOD   11
  ------------------------------------------------------------------------------



     CUMULATIVE VOLUMES      L**3       RATES FOR THIS TIME STEP      L**3/T
     ------------------                 ------------------------

           IN:                                      IN:
           ---                                      ---
        INFILTRATION =    40676939.2819          INFILTRATION =           0.8475

          OUT:                                     OUT:
          ----                                     ----
              UZF ET =   568266779.6772                UZF ET =           0.8925
        UZF RECHARGE =   635557882.3382          UZF RECHARGE =          23.5976

            IN - OUT = -1163147722.7335              IN - OUT =         -23.6426

          STORAGE:                                 STORAGE:
          --------                                 --------
      STORAGE CHANGE = -1163139043.1104        STORAGE CHANGE =         -23.6426

 PERCENT DISCREPANCY IS DIFFERENCE BETWEEN IN-OUT MINUS CHANGE IN STORAGE
 DIVIDED BY THE AVERAGE OF IN AND OUT TIMES 100

 PERCENT DISCREPANCY =          -0.00     PERCENT DISCREPANCY =           0.00






1
  VOLUMETRIC BUDGET FOR ENTIRE MODEL AT END OF TIME STEP    5, STRESS PERIOD  11
  ------------------------------------------------------------------------------

     CUMULATIVE VOLUMES      L**3       RATES FOR THIS TIME STEP      L**3/T
     ------------------                 ------------------------

           IN:                                      IN:
           ---                                      ---
             STORAGE =    28224928.0000               STORAGE =           0.0000
       CONSTANT HEAD =           0.0000         CONSTANT HEAD =           0.0000
               WELLS =           0.0000                 WELLS =           0.0000
     HEAD DEP BOUNDS =     7627802.0000       HEAD DEP BOUNDS =           0.2812
      STREAM LEAKAGE =   278478272.0000        STREAM LEAKAGE =           9.1538
        UZF RECHARGE =   635557760.0000          UZF RECHARGE =          23.5976
               GW ET =           0.0000                 GW ET =           0.0000
     SURFACE LEAKAGE =           0.0000       SURFACE LEAKAGE =           0.0000

            TOTAL IN =   949888768.0000              TOTAL IN =          33.0326

          OUT:                                     OUT:
          ----                                     ----
             STORAGE =   666403520.0000               STORAGE =          23.8870
       CONSTANT HEAD =           0.0000         CONSTANT HEAD =           0.0000
               WELLS =     1016027.8750                 WELLS =           0.0000
     HEAD DEP BOUNDS =     7655469.5000       HEAD DEP BOUNDS =           0.2813
      STREAM LEAKAGE =   204034944.0000        STREAM LEAKAGE =           8.7410
        UZF RECHARGE =           0.0000          UZF RECHARGE =           0.0000
               GW ET =    70727920.0000                 GW ET =           0.1197
     SURFACE LEAKAGE =           0.0000       SURFACE LEAKAGE =           0.0000

           TOTAL OUT =   949837888.0000             TOTAL OUT =          33.0290

            IN - OUT =       50880.0000              IN - OUT =       3.6507E-03

 PERCENT DISCREPANCY =           0.01     PERCENT DISCREPANCY =           0.01






         TIME SUMMARY AT END OF TIME STEP    5 IN STRESS PERIOD   11
                    SECONDS     MINUTES      HOURS       DAYS        YEARS
                    -----------------------------------------------------------
   TIME STEP LENGTH  87600.      1460.0      24.333      1.0139     2.77588E-03
 STRESS PERIOD TIME 4.38000E+05  7300.0      121.67      5.0694     1.38794E-02
         TOTAL TIME 2.67180E+07 4.45300E+05  7421.7      309.24     0.84664    
1
 
 SOLVING FOR HEAD 
                                                   Max.-Head-Change                         Max.-Flux-Residual
  Residual-Control   Outer-Iter.   Inner-Iter.     Column Row Layer    Maximum-Head-Change  Column Row Layer    Maximum-Flux-Residual          L2-NORM 
          0                 1           2             5   13     1       0.1133152686E-01       5   13    1         0.6083133827E+00      0.1802770305E+01
          0                 2           2             8    2     1       0.2605087395E-02       8    2    1         0.6764531192E-01      0.4078564381E+00
          0                 3           2             8    2     1       0.1171059722E-02       8    2    1         0.3040851777E-01      0.1491614804E+00
          0                 4           2             8    2     1       0.5264229782E-03       8    2    1         0.1366947507E-01      0.6455518898E-01
          0                 5           2             8    2     1       0.2366408259E-03       8    2    1         0.6144795907E-02      0.2876689024E-01
          0                 6           1             8    2     1       0.1063759721E-03       8    2    1         0.2762244549E-02      0.1287631760E-01
          0                 7           1             8    2     1       0.4781855380E-04       8    2    1         0.1241697534E-02      0.5767648971E-02
          0                 8           1             8    2     1       0.2149553951E-04       8    2    1         0.5581726308E-03      0.2583865985E-02
          0                 9           1             8    2     1       0.9662717766E-05       8    2    1         0.2509113339E-03      0.1157625360E-02

    ------------------------------------------------
       NWT REQUIRED            9 OUTER ITERATIONS 
       AND A TOTAL OF         14 INNER ITERATIONS.
    ------------------------------------------------

 NO OUTPUT CONTROL FOR STRESS PERIOD   11   TIME STEP    6
 
 SOLVING FOR HEAD 
                                                   Max.-Head-Change                         Max.-Flux-Residual
  Residual-Control   Outer-Iter.   Inner-Iter.     Column Row Layer    Maximum-Head-Change  Column Row Layer    Maximum-Flux-Residual          L2-NORM 
          0                 1           2             5   13     1       0.1098750060E-01       5   13    1         0.5898137014E+00      0.1782280634E+01
          0                 2           2             8    2     1       0.2604520239E-02       8    2    1         0.6763070924E-01      0.4067548590E+00
          0                 3           2             8    2     1       0.1170802146E-02       8    2    1         0.3040188507E-01      0.1490145830E+00
          0                 4           2             8    2     1       0.5263060158E-03       8    2    1         0.1366646287E-01      0.6449574460E-01
          0                 5           2             8    2     1       0.2365877220E-03       8    2    1         0.6143428134E-02      0.2874034328E-01
          0                 6           1             8    2     1       0.1063518649E-03       8    2    1         0.2761623562E-02      0.1286444985E-01
          0                 7           1             8    2     1       0.4780761169E-04       8    2    1         0.1241415638E-02      0.5762344605E-02
          0                 8           1             8    2     1       0.2149057380E-04       8    2    1         0.5580446815E-03      0.2581497552E-02
          0                 9           1             8    2     1       0.9660464265E-05       8    2    1         0.2508532653E-03      0.1156571045E-02

    ------------------------------------------------
       NWT REQUIRED            9 OUTER ITERATIONS 
       AND A TOTAL OF         14 INNER ITERATIONS.
    ------------------------------------------------

 NO OUTPUT CONTROL FOR STRESS PERIOD   11   TIME STEP    7
 
 SOLVING FOR HEAD 
                                                   Max.-Head-Change                         Max.-Flux-Residual
  Residual-Control   Outer-Iter.   Inner-Iter.     Column Row Layer    Maximum-Head-Change  Column Row Layer    Maximum-Flux-Residual          L2-NORM 
          0                 1           2             5   13     1       0.1065570315E-01       5   13    1         0.5719343734E+00      0.1763779886E+01
          0                 2           2             8    2     1       0.2603944918E-02       8    2    1         0.6761589558E-01      0.4057676641E+00
          0                 3           2             8    2     1       0.1170540876E-02       8    2    1         0.3039515694E-01      0.1488724176E+00
          0                 4           2             8    2     1       0.5261873829E-03       8    2    1         0.1366340752E-01      0.6443657946E-01
          0                 5           2             8    2     1       0.2365338631E-03       8    2    1         0.6142040855E-02      0.2871382181E-01
          0                 6           1             8    2     1       0.1063274166E-03       8    2    1         0.2760993762E-02      0.1285258729E-01
          0                 7           1             8    2     1       0.4779651576E-04       8    2    1         0.1241129763E-02      0.5757040625E-02
          0                 8           1             8    2     1       0.2148553832E-04       8    2    1         0.5579149348E-03      0.2579123773E-02
          0                 9           1             8    2     1       0.9658179001E-05       8    2    1         0.2507943858E-03      0.1155505102E-02

    ------------------------------------------------
       NWT REQUIRED            9 OUTER ITERATIONS 
       AND A TOTAL OF         14 INNER ITERATIONS.
    ------------------------------------------------

 NO OUTPUT CONTROL FOR STRESS PERIOD   11   TIME STEP    8
 
 SOLVING FOR HEAD 
                                                   Max.-Head-Change                         Max.-Flux-Residual
  Residual-Control   Outer-Iter.   Inner-Iter.     Column Row Layer    Maximum-Head-Change  Column Row Layer    Maximum-Flux-Residual          L2-NORM 
          0                 1           2             5   13     1       0.1033595676E-01       5   13    1         0.5547001976E+00      0.1746817650E+01
          0                 2           2             8    2     1       0.2603361547E-02       8    2    1         0.6760087182E-01      0.4048449744E+00
          0                 3           2             8    2     1       0.1170276011E-02       8    2    1         0.3038833496E-01      0.1487318022E+00
          0                 4           2             8    2     1       0.5260671447E-03       8    2    1         0.1366031025E-01      0.6437774287E-01
          0                 5           2             8    2     1       0.2364792874E-03       8    2    1         0.6140634848E-02      0.2868745226E-01
          0                 6           1             8    2     1       0.1063026481E-03       8    2    1         0.2760355592E-02      0.1284078571E-01
          0                 7           1             8    2     1       0.4778527577E-04       8    2    1         0.1240840143E-02      0.5751763341E-02
          0                 8           1             8    2     1       0.2148043905E-04       8    2    1         0.5577835223E-03      0.2576763852E-02
          0                 9           1             8    2     1       0.9655865974E-05       8    2    1         0.2507347635E-03      0.1154449472E-02

    ------------------------------------------------
       NWT REQUIRED            9 OUTER ITERATIONS 
       AND A TOTAL OF         14 INNER ITERATIONS.
    ------------------------------------------------

 NO OUTPUT CONTROL FOR STRESS PERIOD   11   TIME STEP    9
 
 SOLVING FOR HEAD 
                                                   Max.-Head-Change                         Max.-Flux-Residual
  Residual-Control   Outer-Iter.   Inner-Iter.     Column Row Layer    Maximum-Head-Change  Column Row Layer    Maximum-Flux-Residual          L2-NORM 
          0                 1           2             5   13     1       0.1002782961E-01       5   13    1         0.5380897256E+00      0.1731361939E+01
          0                 2           2             8    2     1       0.2602814775E-02       8    2    1         0.6758679949E-01      0.4039895252E+00
          0                 3           2             8    2     1       0.1170027574E-02       8    2    1         0.3038194007E-01      0.1485937058E+00
          0                 4           2             8    2     1       0.5259542809E-03       8    2    1         0.1365740470E-01      0.6431941681E-01
          0                 5           2             8    2     1       0.2364280224E-03       8    2    1         0.6139314913E-02      0.2866129720E-01
          0                 6           1             8    2     1       0.1062793660E-03       8    2    1         0.2759756062E-02      0.1282907889E-01
          0                 7           1             8    2     1       0.4777470408E-04       8    2    1         0.1240567871E-02      0.5746526616E-02
          0                 8           1             8    2     1       0.2147563867E-04       8    2    1         0.5576598813E-03      0.2574421348E-02
          0                 9           1             8    2     1       0.9653686756E-05       8    2    1         0.2506786293E-03      0.1153401387E-02

    ------------------------------------------------
       NWT REQUIRED            9 OUTER ITERATIONS 
       AND A TOTAL OF         14 INNER ITERATIONS.
    ------------------------------------------------

 OUTPUT CONTROL FOR STRESS PERIOD   11   TIME STEP   10
    PRINT BUDGET
    SAVE BUDGET
 UBUDSV SAVING "         STORAGE" ON UNIT102 AT TIME STEP    10, STRESS PERIOD   11
 UBUDSV SAVING "   CONSTANT HEAD" ON UNIT102 AT TIME STEP    10, STRESS PERIOD   11
 UBUDSV SAVING "FLOW RIGHT FACE " ON UNIT102 AT TIME STEP    10, STRESS PERIOD   11
 UBUDSV SAVING "FLOW FRONT FACE " ON UNIT102 AT TIME STEP    10, STRESS PERIOD   11

  HEAD DEP BOUNDS   PERIOD   11   STEP    10
 BOUNDARY      1   LAYER   1   ROW    13   COL     1   RATE   -0.282614    
 BOUNDARY      2   LAYER   1   ROW    14   COL     9   RATE    0.281189    



 STREAM LISTING     PERIOD     11   STEP       10

 LAYER ROW COL. STREAM  RCH.  FLOW INTO     FLOW TO   FLOW OUT OF   OVRLND.     DIRECT     STREAM       STREAM     STREAM     STREAM   STREAMBED  STREAMBED
                SEG.NO.  NO.  STRM. RCH.    AQUIFER    STRM. RCH.    RUNOFF     PRECIP       ET          HEAD       DEPTH      WIDTH   CONDCTNC.   GRADIENT

   1    1    1     1     1    3.5000E+00  8.3255E-02   3.4167E+00  0.000E+00  0.000E+00  0.000E+00  1.09371E+03  6.654E-01  5.047E+00  2.271E-02  1.222E+00
   1    2    2     1     2    3.4167E+00  1.2792E-01   3.2888E+00  0.000E+00  0.000E+00  0.000E+00  1.08872E+03  6.583E-01  4.995E+00  3.497E-02  1.219E+00
   1    3    3     1     3    3.2888E+00  1.0809E-01   3.1807E+00  0.000E+00  0.000E+00  0.000E+00  1.08307E+03  6.502E-01  4.935E+00  2.961E-02  1.217E+00
   1    3    4     1     4    3.1807E+00  9.8702E-02   3.0820E+00  0.000E+00  0.000E+00  0.000E+00  1.07805E+03  6.428E-01  4.882E+00  2.709E-02  1.214E+00
   1    4    5     2     1    1.0820E+00  0.0000E+00   1.0820E+00  0.000E+00  0.000E+00  0.000E+00  1.07212E+03  1.835E-01  1.200E+01  0.000E+00  1.061E+00
   1    5    6     2     2    1.0820E+00  0.0000E+00   1.0820E+00  0.000E+00  0.000E+00  0.000E+00  1.06669E+03  1.835E-01  1.200E+01  0.000E+00  1.061E+00
   1    6    6     2     3    1.0820E+00  0.0000E+00   1.0820E+00  0.000E+00  0.000E+00  0.000E+00  1.06198E+03  1.835E-01  1.200E+01  0.000E+00  1.061E+00
   1    7    6     2     4    1.0820E+00  0.0000E+00   1.0820E+00  0.000E+00  0.000E+00  0.000E+00  1.05726E+03  1.835E-01  1.200E+01  0.000E+00  1.061E+00
   1    8    6     2     5    1.0820E+00  0.0000E+00   1.0820E+00  0.000E+00  0.000E+00  0.000E+00  1.05254E+03  1.835E-01  1.200E+01  0.000E+00  1.061E+00
   1    3    5     3     1    2.0000E+00  2.8252E-01   1.7175E+00  0.000E+00  0.000E+00  0.000E+00  1.07555E+03  1.909E+00  9.636E+00  7.227E-02  1.955E+00
   1    3    6     3     2    1.7175E+00  2.4905E-01   1.4684E+00  0.000E+00  0.000E+00  0.000E+00  1.07264E+03  1.727E+00  8.909E+00  6.682E-02  1.864E+00
   1    3    7     3     3    1.4684E+00  1.9718E-01   1.2712E+00  0.000E+00  0.000E+00  0.000E+00  1.06987E+03  1.555E+00  8.218E+00  5.547E-02  1.777E+00
   1    4    8     3     4    1.2712E+00  2.2567E-01   1.0456E+00  0.000E+00  0.000E+00  0.000E+00  1.06682E+03  1.364E+00  7.455E+00  6.709E-02  1.682E+00
   1    5    8     3     5    1.0456E+00  1.5790E-01   8.8768E-01  0.000E+00  0.000E+00  0.000E+00  1.06362E+03  1.164E+00  6.655E+00  4.991E-02  1.582E+00
   1    6    8     3     6    8.8768E-01  5.5980E-02   8.3170E-01  0.000E+00  0.000E+00  0.000E+00  1.06158E+03  1.036E+00  6.145E+00  1.844E-02  1.518E+00
   1    5   10     4     1    1.0000E+01  0.0000E+00   1.0000E+01  0.000E+00  0.000E+00  0.000E+00  1.07837E+03  6.385E-01  1.000E+01  0.000E+00  1.213E+00
   1    5    9     4     2    1.0000E+01  0.0000E+00   1.0000E+01  0.000E+00  0.000E+00  0.000E+00  1.07155E+03  6.385E-01  1.000E+01  0.000E+00  1.213E+00
   1    6    8     4     3    1.0000E+01  0.0000E+00   1.0000E+01  0.000E+00  0.000E+00  0.000E+00  1.06382E+03  6.385E-01  1.000E+01  0.000E+00  1.213E+00
   1    6    8     5     1    1.0832E+01  2.3262E-01   1.0599E+01  0.000E+00  0.000E+00  0.000E+00  1.05869E+03  6.881E-01  1.577E+01  6.307E-02  1.229E+00
   1    7    7     5     2    1.0599E+01  2.8607E-01   1.0313E+01  0.000E+00  0.000E+00  0.000E+00  1.05418E+03  6.822E-01  1.554E+01  7.769E-02  1.227E+00
   1    8    7     5     3    1.0313E+01  1.9716E-01   1.0116E+01  0.000E+00  0.000E+00  0.000E+00  1.04993E+03  6.766E-01  1.532E+01  5.363E-02  1.226E+00
   1    8    6     5     4    1.0116E+01  1.3929E-01   9.9766E+00  0.000E+00  0.000E+00  0.000E+00  1.04692E+03  6.727E-01  1.517E+01  3.792E-02  1.224E+00
   1    9    6     6     1    1.1059E+01  0.0000E+00   1.1059E+01  0.000E+00  0.000E+00  0.000E+00  1.04348E+03  7.485E-01  1.200E+01  0.000E+00  1.249E+00
   1   10    7     6     2    1.1059E+01  0.0000E+00   1.1059E+01  0.000E+00  0.000E+00  0.000E+00  1.03893E+03  7.485E-01  1.200E+01  0.000E+00  1.249E+00
   1   11    7     6     3    1.1059E+01  0.0000E+00   1.1059E+01  0.000E+00  0.000E+00  0.000E+00  1.03438E+03  7.485E-01  1.200E+01  0.000E+00  1.249E+00
   1   12    7     6     4    1.1059E+01  0.0000E+00   1.1059E+01  0.000E+00  0.000E+00  0.000E+00  1.02984E+03  7.485E-01  1.200E+01  0.000E+00  1.249E+00
   1   13    7     6     5    1.1059E+01  0.0000E+00   1.1059E+01  0.000E+00  0.000E+00  0.000E+00  1.02666E+03  7.485E-01  1.200E+01  0.000E+00  6.212E-02
   1   14    9     7     1    1.5000E+02  1.2687E+00   1.4873E+02  0.000E+00  0.000E+00  0.000E+00  1.03987E+03  2.288E+00  5.530E+01  5.593E-01  7.561E-01
   1   13    8     7     2    1.4873E+02  1.9290E+00   1.4680E+02  0.000E+00  0.000E+00  0.000E+00  1.03478E+03  2.279E+00  5.526E+01  6.148E-01  1.046E+00
   1   13    7     7     3    1.4680E+02  1.7967E+00   1.4501E+02  0.000E+00  0.000E+00  0.000E+00  1.02969E+03  2.269E+00  5.521E+01  5.584E-01  1.073E+00
   1   13    6     8     1    1.5606E+02  1.2116E+00   1.5485E+02  0.000E+00  0.000E+00  0.000E+00  1.02473E+03  2.855E+00  4.140E+01  4.218E-01  9.574E-01
   1   13    5     8     2    1.5485E+02  4.7118E-01   1.5438E+02  0.000E+00  0.000E+00  0.000E+00  1.01847E+03  2.849E+00  4.131E+01  4.210E-01  3.731E-01
   1   13    4     8     3    1.5438E+02 -1.6284E+00   1.5601E+02  0.000E+00  0.000E+00  0.000E+00  1.01223E+03  2.853E+00  4.137E+01  4.216E+00 -1.288E-01
   1   13    3     8     4    1.5601E+02 -3.3399E+00   1.5935E+02  0.000E+00  0.000E+00  0.000E+00  1.00600E+03  2.870E+00  4.162E+01  4.241E+00 -2.625E-01
   1   13    2     8     5    1.5935E+02 -2.4052E+00   1.6176E+02  0.000E+00  0.000E+00  0.000E+00  9.99765E+02  2.890E+00  4.190E+01  4.270E+00 -1.878E-01
   1   13    1     8     6    1.6176E+02 -1.6959E+00   1.6345E+02  0.000E+00  0.000E+00  0.000E+00  9.94778E+02  2.903E+00  4.210E+01  2.574E+00 -2.196E-01
   1    6    8     9     1    0.0000E+00  0.0000E+00   0.0000E+00  0.000E+00  0.000E+00  0.000E+00  1.07850E+03  0.000E+00  4.000E+00  0.000E+00  1.000E+00



 UBDSV3 SAVING "     NETRECHARGE" ON UNIT 100 AT TIME STEP    10, STRESS PERIOD  11
 UBDSV3 SAVING "    NETDISCHARGE" ON UNIT 101 AT TIME STEP    10, STRESS PERIOD  11
 UBDSV3 SAVING "           GW ET" ON UNIT  61 AT TIME STEP    10, STRESS PERIOD  11
 UBDSV3 SAVING "    UZF RECHARGE" ON UNIT  61 AT TIME STEP    10, STRESS PERIOD  11
 UBDSV3 SAVING " SURFACE LEAKAGE" ON UNIT  61 AT TIME STEP    10, STRESS PERIOD  11
 UBDSV3 SAVING "       HORT+DUNN" ON UNIT  61 AT TIME STEP    10, STRESS PERIOD  11
 UBDSV3 SAVING "  STORAGE CHANGE" ON UNIT  61 AT TIME STEP    10, STRESS PERIOD  11


UNSATURATED ZONE PACKAGE VOLUMETRIC BUDGET FOR  TIME STEP    10 STRESS PERIOD   11
  ------------------------------------------------------------------------------



     CUMULATIVE VOLUMES      L**3       RATES FOR THIS TIME STEP      L**3/T
     ------------------                 ------------------------

           IN:                                      IN:
           ---                                      ---
        INFILTRATION =    41048144.2819          INFILTRATION =           0.8475

          OUT:                                     OUT:
          ----                                     ----
              UZF ET =   568657694.6755                UZF ET =           0.8925
        UZF RECHARGE =   645887160.2786          UZF RECHARGE =          23.5817

            IN - OUT = -1173496710.6722              IN - OUT =         -23.6267

          STORAGE:                                 STORAGE:
          --------                                 --------
      STORAGE CHANGE = -1173488031.0554        STORAGE CHANGE =         -23.6267

 PERCENT DISCREPANCY IS DIFFERENCE BETWEEN IN-OUT MINUS CHANGE IN STORAGE
 DIVIDED BY THE AVERAGE OF IN AND OUT TIMES 100

 PERCENT DISCREPANCY =          -0.00     PERCENT DISCREPANCY =           0.00






1
  VOLUMETRIC BUDGET FOR ENTIRE MODEL AT END OF TIME STEP   10, STRESS PERIOD  11
  ------------------------------------------------------------------------------

     CUMULATIVE VOLUMES      L**3       RATES FOR THIS TIME STEP      L**3/T
     ------------------                 ------------------------

           IN:                                      IN:
           ---                                      ---
             STORAGE =    28225626.0000               STORAGE =           0.0000
       CONSTANT HEAD =           0.0000         CONSTANT HEAD =           0.0000
               WELLS =           0.0000                 WELLS =           0.0000
     HEAD DEP BOUNDS =     7750971.0000       HEAD DEP BOUNDS =           0.2812
      STREAM LEAKAGE =   282478272.0000        STREAM LEAKAGE =           9.1186
        UZF RECHARGE =   645886976.0000          UZF RECHARGE =          23.5817
               GW ET =           0.0000                 GW ET =           0.0000
     SURFACE LEAKAGE =           0.0000       SURFACE LEAKAGE =           0.0000

            TOTAL IN =   964341888.0000              TOTAL IN =          32.9815

          OUT:                                     OUT:
          ----                                     ----
             STORAGE =   676760320.0000               STORAGE =          23.5047
       CONSTANT HEAD =           0.0000         CONSTANT HEAD =           0.0000
               WELLS =     1016027.8750                 WELLS =           0.0000
     HEAD DEP BOUNDS =     7779033.5000       HEAD DEP BOUNDS =           0.2826
      STREAM LEAKAGE =   207953296.0000        STREAM LEAKAGE =           9.0695
        UZF RECHARGE =           0.0000          UZF RECHARGE =           0.0000
               GW ET =    70780720.0000                 GW ET =           0.1211
     SURFACE LEAKAGE =           0.0000       SURFACE LEAKAGE =           0.0000

           TOTAL OUT =   964289344.0000             TOTAL OUT =          32.9778

            IN - OUT =       52544.0000              IN - OUT =       3.6316E-03

 PERCENT DISCREPANCY =           0.01     PERCENT DISCREPANCY =           0.01






         TIME SUMMARY AT END OF TIME STEP   10 IN STRESS PERIOD   11
                    SECONDS     MINUTES      HOURS       DAYS        YEARS
                    -----------------------------------------------------------
   TIME STEP LENGTH  87600.      1460.0      24.333      1.0139     2.77588E-03
 STRESS PERIOD TIME 8.76000E+05  14600.      243.33      10.139     2.77588E-02
         TOTAL TIME 2.71560E+07 4.52600E+05  7543.3      314.31     0.86052    
1
 
 SOLVING FOR HEAD 
                                                   Max.-Head-Change                         Max.-Flux-Residual
  Residual-Control   Outer-Iter.   Inner-Iter.     Column Row Layer    Maximum-Head-Change  Column Row Layer    Maximum-Flux-Residual          L2-NORM 
          0                 1           2             5   13     1       0.9730355610E-02       5   13    1         0.5220846832E+00      0.1716984584E+01
          0                 2           2             8    2     1       0.2602215357E-02       8    2    1         0.6757135683E-01      0.4031762571E+00
          0                 3           2             8    2     1       0.1169755542E-02       8    2    1         0.3037493099E-01      0.1484566646E+00
          0                 4           2             8    2     1       0.5258308418E-03       8    2    1         0.1365422386E-01      0.6426139380E-01
          0                 5           2             8    2     1       0.2363720168E-03       8    2    1         0.6137871590E-02      0.2863527830E-01
          0                 6           1             8    2     1       0.1062539592E-03       8    2    1         0.2759101234E-02      0.1281742999E-01
          0                 7           1             8    2     1       0.4776317946E-04       8    2    1         0.1240270814E-02      0.5741314265E-02
          0                 8           1             8    2     1       0.2147041210E-04       8    2    1         0.5575251461E-03      0.2572088870E-02
          0                 9           1             8    2     1       0.9651316704E-05       8    2    1         0.2506175243E-03      0.1152357654E-02

    ------------------------------------------------
       NWT REQUIRED            9 OUTER ITERATIONS 
       AND A TOTAL OF         14 INNER ITERATIONS.
    ------------------------------------------------

 NO OUTPUT CONTROL FOR STRESS PERIOD   11   TIME STEP   11
 
 SOLVING FOR HEAD 
                                                   Max.-Head-Change                         Max.-Flux-Residual
  Residual-Control   Outer-Iter.   Inner-Iter.     Column Row Layer    Maximum-Head-Change  Column Row Layer    Maximum-Flux-Residual          L2-NORM 
          0                 1           2             5   13     1       0.9443574211E-02       5   13    1         0.5066177778E+00      0.1704037115E+01
          0                 2           2             8    2     1       0.2601608185E-02       8    2    1         0.6755571172E-01      0.4024382013E+00
          0                 3           2             8    2     1       0.1169480047E-02       8    2    1         0.3036783152E-01      0.1483224251E+00
          0                 4           2             8    2     1       0.5257058571E-03       8    2    1         0.1365100267E-01      0.6420358982E-01
          0                 5           2             8    2     1       0.2363153211E-03       8    2    1         0.6136410244E-02      0.2860931283E-01
          0                 6           1             8    2     1       0.1062282443E-03       8    2    1         0.2758438355E-02      0.1280580081E-01
          0                 7           1             8    2     1       0.4775151753E-04       8    2    1         0.1239970165E-02      0.5736109370E-02
          0                 8           1             8    2     1       0.2146512400E-04       8    2    1         0.5573888040E-03      0.2569759483E-02
          0                 9           1             8    2     1       0.9648919140E-05       8    2    1         0.2505557006E-03      0.1151315869E-02

    ------------------------------------------------
       NWT REQUIRED            9 OUTER ITERATIONS 
       AND A TOTAL OF         14 INNER ITERATIONS.
    ------------------------------------------------

 NO OUTPUT CONTROL FOR STRESS PERIOD   11   TIME STEP   12
 
 SOLVING FOR HEAD 
                                                   Max.-Head-Change                         Max.-Flux-Residual
  Residual-Control   Outer-Iter.   Inner-Iter.     Column Row Layer    Maximum-Head-Change  Column Row Layer    Maximum-Flux-Residual          L2-NORM 
          0                 1           2             5   13     1       0.9167381634E-02       5   13    1         0.4917210591E+00      0.1692033759E+01
          0                 2           2             8    2     1       0.2600993356E-02       8    2    1         0.6753986669E-01      0.4017361520E+00
          0                 3           2             8    2     1       0.1169201134E-02       8    2    1         0.3036064277E-01      0.1481890951E+00
          0                 4           2             8    2     1       0.5255793449E-03       8    2    1         0.1364774161E-01      0.6414595739E-01
          0                 5           2             8    2     1       0.2362579446E-03       8    2    1         0.6134931110E-02      0.2858341920E-01
          0                 6           1             8    2     1       0.1062022250E-03       8    2    1         0.2757767533E-02      0.1279420111E-01
          0                 7           1             8    2     1       0.4773971979E-04       8    2    1         0.1239665970E-02      0.5730916761E-02
          0                 8           1             8    2     1       0.2145977513E-04       8    2    1         0.5572508778E-03      0.2567436106E-02
          0                 9           1             8    2     1       0.9646494313E-05       8    2    1         0.2504931731E-03      0.1150276970E-02

    ------------------------------------------------
       NWT REQUIRED            9 OUTER ITERATIONS 
       AND A TOTAL OF         14 INNER ITERATIONS.
    ------------------------------------------------

 NO OUTPUT CONTROL FOR STRESS PERIOD   11   TIME STEP   13
 
 SOLVING FOR HEAD 
                                                   Max.-Head-Change                         Max.-Flux-Residual
  Residual-Control   Outer-Iter.   Inner-Iter.     Column Row Layer    Maximum-Head-Change  Column Row Layer    Maximum-Flux-Residual          L2-NORM 
          0                 1           2             5   13     1       0.8901354264E-02       5   13    1         0.4773726030E+00      0.1681108431E+01
          0                 2           2             8    2     1       0.2600370861E-02       8    2    1         0.6752382276E-01      0.4010762597E+00
          0                 3           2             8    2     1       0.1168918771E-02       8    2    1         0.3035336453E-01      0.1480556919E+00
          0                 4           2             8    2     1       0.5254512811E-03       8    2    1         0.1364444028E-01      0.6408804738E-01
          0                 5           2             8    2     1       0.2361998683E-03       8    2    1         0.6133433837E-02      0.2855740984E-01
          0                 6           1             8    2     1       0.1061758911E-03       8    2    1         0.2757088550E-02      0.1278254625E-01
          0                 7           1             8    2     1       0.4772778074E-04       8    2    1         0.1239358101E-02      0.5725697298E-02
          0                 8           1             8    2     1       0.2145436247E-04       8    2    1         0.5571112905E-03      0.2565097902E-02
          0                 9           1             8    2     1       0.9644040724E-05       8    2    1         0.2504298920E-03      0.1149228071E-02

    ------------------------------------------------
       NWT REQUIRED            9 OUTER ITERATIONS 
       AND A TOTAL OF         14 INNER ITERATIONS.
    ------------------------------------------------

 NO OUTPUT CONTROL FOR STRESS PERIOD   11   TIME STEP   14
 
 SOLVING FOR HEAD 
                                                   Max.-Head-Change                         Max.-Flux-Residual
  Residual-Control   Outer-Iter.   Inner-Iter.     Column Row Layer    Maximum-Head-Change  Column Row Layer    Maximum-Flux-Residual          L2-NORM 
          0                 1           2             5   13     1       0.8644349617E-02       5   13    1         0.4635404961E+00      0.1670848144E+01
          0                 2           2             8    2     1       0.2599740726E-02       8    2    1         0.6750758027E-01      0.4004404077E+00
          0                 3           2             8    2     1       0.1168632978E-02       8    2    1         0.3034599712E-01      0.1479236444E+00
          0                 4           2             8    2     1       0.5253216775E-03       8    2    1         0.1364109892E-01      0.6403064128E-01
          0                 5           2             8    2     1       0.2361411015E-03       8    2    1         0.6131918605E-02      0.2853162335E-01
          0                 6           1             8    2     1       0.1061492475E-03       8    2    1         0.2756401508E-02      0.1277099170E-01
          0                 7           1             8    2     1       0.4771570213E-04       8    2    1         0.1239046613E-02      0.5720523240E-02
          0                 8           1             8    2     1       0.2144888779E-04       8    2    1         0.5569700914E-03      0.2562781250E-02
          0                 9           1             8    2     1       0.9641559372E-05       8    2    1         0.2503658906E-03      0.1148190932E-02

    ------------------------------------------------
       NWT REQUIRED            9 OUTER ITERATIONS 
       AND A TOTAL OF         14 INNER ITERATIONS.
    ------------------------------------------------

 OUTPUT CONTROL FOR STRESS PERIOD   11   TIME STEP   15
    PRINT BUDGET
    PRINT HEAD FOR ALL LAYERS
    SAVE HEAD FOR ALL LAYERS
    SAVE BUDGET
 UBUDSV SAVING "         STORAGE" ON UNIT102 AT TIME STEP    15, STRESS PERIOD   11
 UBUDSV SAVING "   CONSTANT HEAD" ON UNIT102 AT TIME STEP    15, STRESS PERIOD   11
 UBUDSV SAVING "FLOW RIGHT FACE " ON UNIT102 AT TIME STEP    15, STRESS PERIOD   11
 UBUDSV SAVING "FLOW FRONT FACE " ON UNIT102 AT TIME STEP    15, STRESS PERIOD   11

  HEAD DEP BOUNDS   PERIOD   11   STEP    15
 BOUNDARY      1   LAYER   1   ROW    13   COL     1   RATE   -0.283666    
 BOUNDARY      2   LAYER   1   ROW    14   COL     9   RATE    0.281140    



 STREAM LISTING     PERIOD     11   STEP       15

 LAYER ROW COL. STREAM  RCH.  FLOW INTO     FLOW TO   FLOW OUT OF   OVRLND.     DIRECT     STREAM       STREAM     STREAM     STREAM   STREAMBED  STREAMBED
                SEG.NO.  NO.  STRM. RCH.    AQUIFER    STRM. RCH.    RUNOFF     PRECIP       ET          HEAD       DEPTH      WIDTH   CONDCTNC.   GRADIENT

   1    1    1     1     1    3.5000E+00  8.3255E-02   3.4167E+00  0.000E+00  0.000E+00  0.000E+00  1.09371E+03  6.654E-01  5.047E+00  2.271E-02  1.222E+00
   1    2    2     1     2    3.4167E+00  1.2792E-01   3.2888E+00  0.000E+00  0.000E+00  0.000E+00  1.08872E+03  6.583E-01  4.995E+00  3.497E-02  1.219E+00
   1    3    3     1     3    3.2888E+00  1.0809E-01   3.1807E+00  0.000E+00  0.000E+00  0.000E+00  1.08307E+03  6.502E-01  4.935E+00  2.961E-02  1.217E+00
   1    3    4     1     4    3.1807E+00  9.8702E-02   3.0820E+00  0.000E+00  0.000E+00  0.000E+00  1.07805E+03  6.428E-01  4.882E+00  2.709E-02  1.214E+00
   1    4    5     2     1    1.0820E+00  0.0000E+00   1.0820E+00  0.000E+00  0.000E+00  0.000E+00  1.07212E+03  1.835E-01  1.200E+01  0.000E+00  1.061E+00
   1    5    6     2     2    1.0820E+00  0.0000E+00   1.0820E+00  0.000E+00  0.000E+00  0.000E+00  1.06669E+03  1.835E-01  1.200E+01  0.000E+00  1.061E+00
   1    6    6     2     3    1.0820E+00  0.0000E+00   1.0820E+00  0.000E+00  0.000E+00  0.000E+00  1.06198E+03  1.835E-01  1.200E+01  0.000E+00  1.061E+00
   1    7    6     2     4    1.0820E+00  0.0000E+00   1.0820E+00  0.000E+00  0.000E+00  0.000E+00  1.05726E+03  1.835E-01  1.200E+01  0.000E+00  1.061E+00
   1    8    6     2     5    1.0820E+00  0.0000E+00   1.0820E+00  0.000E+00  0.000E+00  0.000E+00  1.05254E+03  1.835E-01  1.200E+01  0.000E+00  1.061E+00
   1    3    5     3     1    2.0000E+00  2.8252E-01   1.7175E+00  0.000E+00  0.000E+00  0.000E+00  1.07555E+03  1.909E+00  9.636E+00  7.227E-02  1.955E+00
   1    3    6     3     2    1.7175E+00  2.4905E-01   1.4684E+00  0.000E+00  0.000E+00  0.000E+00  1.07264E+03  1.727E+00  8.909E+00  6.682E-02  1.864E+00
   1    3    7     3     3    1.4684E+00  1.9718E-01   1.2712E+00  0.000E+00  0.000E+00  0.000E+00  1.06987E+03  1.555E+00  8.218E+00  5.547E-02  1.777E+00
   1    4    8     3     4    1.2712E+00  2.2567E-01   1.0456E+00  0.000E+00  0.000E+00  0.000E+00  1.06682E+03  1.364E+00  7.455E+00  6.709E-02  1.682E+00
   1    5    8     3     5    1.0456E+00  1.5790E-01   8.8768E-01  0.000E+00  0.000E+00  0.000E+00  1.06362E+03  1.164E+00  6.655E+00  4.991E-02  1.582E+00
   1    6    8     3     6    8.8768E-01  5.5980E-02   8.3170E-01  0.000E+00  0.000E+00  0.000E+00  1.06158E+03  1.036E+00  6.145E+00  1.844E-02  1.518E+00
   1    5   10     4     1    1.0000E+01  0.0000E+00   1.0000E+01  0.000E+00  0.000E+00  0.000E+00  1.07837E+03  6.385E-01  1.000E+01  0.000E+00  1.213E+00
   1    5    9     4     2    1.0000E+01  0.0000E+00   1.0000E+01  0.000E+00  0.000E+00  0.000E+00  1.07155E+03  6.385E-01  1.000E+01  0.000E+00  1.213E+00
   1    6    8     4     3    1.0000E+01  0.0000E+00   1.0000E+01  0.000E+00  0.000E+00  0.000E+00  1.06382E+03  6.385E-01  1.000E+01  0.000E+00  1.213E+00
   1    6    8     5     1    1.0832E+01  2.3262E-01   1.0599E+01  0.000E+00  0.000E+00  0.000E+00  1.05869E+03  6.881E-01  1.577E+01  6.307E-02  1.229E+00
   1    7    7     5     2    1.0599E+01  2.8607E-01   1.0313E+01  0.000E+00  0.000E+00  0.000E+00  1.05418E+03  6.822E-01  1.554E+01  7.769E-02  1.227E+00
   1    8    7     5     3    1.0313E+01  1.9716E-01   1.0116E+01  0.000E+00  0.000E+00  0.000E+00  1.04993E+03  6.766E-01  1.532E+01  5.363E-02  1.226E+00
   1    8    6     5     4    1.0116E+01  1.3929E-01   9.9766E+00  0.000E+00  0.000E+00  0.000E+00  1.04692E+03  6.727E-01  1.517E+01  3.792E-02  1.224E+00
   1    9    6     6     1    1.1059E+01  0.0000E+00   1.1059E+01  0.000E+00  0.000E+00  0.000E+00  1.04348E+03  7.485E-01  1.200E+01  0.000E+00  1.249E+00
   1   10    7     6     2    1.1059E+01  0.0000E+00   1.1059E+01  0.000E+00  0.000E+00  0.000E+00  1.03893E+03  7.485E-01  1.200E+01  0.000E+00  1.249E+00
   1   11    7     6     3    1.1059E+01  0.0000E+00   1.1059E+01  0.000E+00  0.000E+00  0.000E+00  1.03438E+03  7.485E-01  1.200E+01  0.000E+00  1.249E+00
   1   12    7     6     4    1.1059E+01  0.0000E+00   1.1059E+01  0.000E+00  0.000E+00  0.000E+00  1.02984E+03  7.485E-01  1.200E+01  0.000E+00  1.249E+00
   1   13    7     6     5    1.1059E+01  0.0000E+00   1.1059E+01  0.000E+00  0.000E+00  0.000E+00  1.02666E+03  7.485E-01  1.200E+01  0.000E+00  6.058E-02
   1   14    9     7     1    1.5000E+02  1.2680E+00   1.4873E+02  0.000E+00  0.000E+00  0.000E+00  1.03987E+03  2.288E+00  5.530E+01  5.593E-01  7.557E-01
   1   13    8     7     2    1.4873E+02  1.9285E+00   1.4680E+02  0.000E+00  0.000E+00  0.000E+00  1.03478E+03  2.279E+00  5.526E+01  6.148E-01  1.046E+00
   1   13    7     7     3    1.4680E+02  1.7941E+00   1.4501E+02  0.000E+00  0.000E+00  0.000E+00  1.02969E+03  2.269E+00  5.521E+01  5.584E-01  1.071E+00
   1   13    6     8     1    1.5607E+02  1.2011E+00   1.5487E+02  0.000E+00  0.000E+00  0.000E+00  1.02473E+03  2.855E+00  4.140E+01  4.218E-01  9.491E-01
   1   13    5     8     2    1.5487E+02  4.5368E-01   1.5441E+02  0.000E+00  0.000E+00  0.000E+00  1.01847E+03  2.849E+00  4.131E+01  4.210E-01  3.592E-01
   1   13    4     8     3    1.5441E+02 -1.6919E+00   1.5611E+02  0.000E+00  0.000E+00  0.000E+00  1.01223E+03  2.853E+00  4.138E+01  4.216E+00 -1.338E-01
   1   13    3     8     4    1.5611E+02 -3.3930E+00   1.5950E+02  0.000E+00  0.000E+00  0.000E+00  1.00600E+03  2.871E+00  4.163E+01  4.242E+00 -2.666E-01
   1   13    2     8     5    1.5950E+02 -2.4654E+00   1.6196E+02  0.000E+00  0.000E+00  0.000E+00  9.99766E+02  2.891E+00  4.192E+01  4.271E+00 -1.924E-01
   1   13    1     8     6    1.6196E+02 -1.7639E+00   1.6373E+02  0.000E+00  0.000E+00  0.000E+00  9.94780E+02  2.905E+00  4.212E+01  2.575E+00 -2.283E-01
   1    6    8     9     1    0.0000E+00  0.0000E+00   0.0000E+00  0.000E+00  0.000E+00  0.000E+00  1.07850E+03  0.000E+00  4.000E+00  0.000E+00  1.000E+00



 UBDSV3 SAVING "     NETRECHARGE" ON UNIT 100 AT TIME STEP    15, STRESS PERIOD  11
 UBDSV3 SAVING "    NETDISCHARGE" ON UNIT 101 AT TIME STEP    15, STRESS PERIOD  11
 UBDSV3 SAVING "           GW ET" ON UNIT  61 AT TIME STEP    15, STRESS PERIOD  11
 UBDSV3 SAVING "    UZF RECHARGE" ON UNIT  61 AT TIME STEP    15, STRESS PERIOD  11
 UBDSV3 SAVING " SURFACE LEAKAGE" ON UNIT  61 AT TIME STEP    15, STRESS PERIOD  11
 UBDSV3 SAVING "       HORT+DUNN" ON UNIT  61 AT TIME STEP    15, STRESS PERIOD  11
 UBDSV3 SAVING "  STORAGE CHANGE" ON UNIT  61 AT TIME STEP    15, STRESS PERIOD  11


UNSATURATED ZONE PACKAGE VOLUMETRIC BUDGET FOR  TIME STEP    15 STRESS PERIOD   11
  ------------------------------------------------------------------------------



     CUMULATIVE VOLUMES      L**3       RATES FOR THIS TIME STEP      L**3/T
     ------------------                 ------------------------

           IN:                                      IN:
           ---                                      ---
        INFILTRATION =    41419349.2819          INFILTRATION =           0.8475

          OUT:                                     OUT:
          ----                                     ----
              UZF ET =   569048610.2112                UZF ET =           0.8925
        UZF RECHARGE =   656210442.1749          UZF RECHARGE =          23.5602

            IN - OUT = -1183839703.1043              IN - OUT =         -23.6052

          STORAGE:                                 STORAGE:
          --------                                 --------
      STORAGE CHANGE = -1183831023.4770        STORAGE CHANGE =         -23.6052

 PERCENT DISCREPANCY IS DIFFERENCE BETWEEN IN-OUT MINUS CHANGE IN STORAGE
 DIVIDED BY THE AVERAGE OF IN AND OUT TIMES 100

 PERCENT DISCREPANCY =          -0.00     PERCENT DISCREPANCY =           0.00






1
              HEAD IN LAYER   1 AT END OF TIME STEP    15 IN STRESS PERIOD   11
  -----------------------------------------------------------------------------

           1       2       3       4       5       6       7       8       9      10
 ...................................................................................
   1  1023.47 1022.62 6999.00 6999.00 6999.00 6999.00 6999.00 6999.00 6999.00 6999.00
   2  1023.69 1023.01 1022.72 6999.00 6999.00 1024.18 1024.31 1024.24 6999.00 6999.00
   3  6999.00 1023.14 1022.72 1022.59 1023.22 1023.83 1024.31 1024.21 6999.00 6999.00
   4  1023.56 1023.11 1022.54 1022.12 1022.05 1022.11 1022.75 1023.80 1023.41 6999.00
   5  1023.44 1022.85 1022.21 1021.74 1021.70 1021.75 1021.88 1022.16 1022.11 1021.97
   6  1023.28 1022.58 1021.89 1021.43 1021.41 1021.52 1021.72 1022.06 1022.51 1023.12
   7  1023.11 1022.19 1021.53 1021.10 1021.13 1021.32 1021.66 1021.89 1023.10 6999.00
   8  6999.00 1021.52 1021.02 1020.69 1020.79 1021.10 1021.48 1022.32 1023.84 6999.00
   9  6999.00 1020.35 1020.15 1020.06 1020.31 1020.77 1021.28 1022.69 1024.73 6999.00
  10  6999.00 1018.44 1018.66 1019.10 1019.71 1020.56 1021.37 1023.26 1025.72 1026.52
  11  6999.00 1014.88 1015.71 1017.55 1018.93 1020.50 1021.95 1024.65 1027.75 6999.00
  12  1002.77 1008.02 1011.55 1015.06 1017.97 1020.78 1023.25 1027.58 1031.50 6999.00
  13   995.46 1000.34 1006.80 1012.63 1017.40 1021.88 1026.48 1031.64 1034.82 6999.00
  14  6999.00 1007.41 1010.02 1014.39 1018.77 1023.17 1028.07 1033.58 1037.60 6999.00
  15  6999.00 6999.00 1014.45 1017.02 1020.27 1023.03 6999.00 6999.00 6999.00 6999.00

 HEAD WILL BE SAVED ON UNIT   62 AT END OF TIME STEP   15, STRESS PERIOD   11
1
  VOLUMETRIC BUDGET FOR ENTIRE MODEL AT END OF TIME STEP   15, STRESS PERIOD  11
  ------------------------------------------------------------------------------

     CUMULATIVE VOLUMES      L**3       RATES FOR THIS TIME STEP      L**3/T
     ------------------                 ------------------------

           IN:                                      IN:
           ---                                      ---
             STORAGE =    28225626.0000               STORAGE =           0.0000
       CONSTANT HEAD =           0.0000         CONSTANT HEAD =           0.0000
               WELLS =           0.0000                 WELLS =           0.0000
     HEAD DEP BOUNDS =     7874119.0000       HEAD DEP BOUNDS =           0.2811
      STREAM LEAKAGE =   286463744.0000        STREAM LEAKAGE =           9.0867
        UZF RECHARGE =   656210304.0000          UZF RECHARGE =          23.5602
               GW ET =           0.0000                 GW ET =           0.0000
     SURFACE LEAKAGE =           0.0000       SURFACE LEAKAGE =           0.0000

            TOTAL IN =   978773760.0000              TOTAL IN =          32.9281

          OUT:                                     OUT:
          ----                                     ----
             STORAGE =   686973952.0000               STORAGE =          23.2043
       CONSTANT HEAD =           0.0000         CONSTANT HEAD =           0.0000
               WELLS =     1016027.8750                 WELLS =           0.0000
     HEAD DEP BOUNDS =     7903103.5000       HEAD DEP BOUNDS =           0.2837
      STREAM LEAKAGE =   211992512.0000        STREAM LEAKAGE =           9.3143
        UZF RECHARGE =           0.0000          UZF RECHARGE =           0.0000
               GW ET =    70834048.0000                 GW ET =           0.1222
     SURFACE LEAKAGE =           0.0000       SURFACE LEAKAGE =           0.0000

           TOTAL OUT =   978719616.0000             TOTAL OUT =          32.9245

            IN - OUT =       54144.0000              IN - OUT =       3.6125E-03

 PERCENT DISCREPANCY =           0.01     PERCENT DISCREPANCY =           0.01






         TIME SUMMARY AT END OF TIME STEP   15 IN STRESS PERIOD   11
                    SECONDS     MINUTES      HOURS       DAYS        YEARS
                    -----------------------------------------------------------
   TIME STEP LENGTH  87600.      1460.0      24.333      1.0139     2.77588E-03
 STRESS PERIOD TIME 1.31400E+06  21900.      365.00      15.208     4.16381E-02
         TOTAL TIME 2.75940E+07 4.59900E+05  7665.0      319.38     0.87440    
1
 
 SOLVING FOR HEAD 
                                                   Max.-Head-Change                         Max.-Flux-Residual
  Residual-Control   Outer-Iter.   Inner-Iter.     Column Row Layer    Maximum-Head-Change  Column Row Layer    Maximum-Flux-Residual          L2-NORM 
          0                 1           2             5   13     1       0.8396802416E-02       5   13    1         0.4501833394E+00      0.1661583005E+01
          0                 2           2             8    2     1       0.2599103139E-02       8    2    1         0.6749114225E-01      0.3998577524E+00
          0                 3           2             8    2     1       0.1168343877E-02       8    2    1         0.3033854293E-01      0.1477940592E+00
          0                 4           2             8    2     1       0.5251906053E-03       8    2    1         0.1363771904E-01      0.6397363037E-01
          0                 5           2             8    2     1       0.2360816829E-03       8    2    1         0.6130386276E-02      0.2850598668E-01
          0                 6           1             8    2     1       0.1061223143E-03       8    2    1         0.2755706877E-02      0.1275950194E-01
          0                 7           1             8    2     1       0.4770349546E-04       8    2    1         0.1238731762E-02      0.5715377385E-02
          0                 8           1             8    2     1       0.2144335584E-04       8    2    1         0.5568273919E-03      0.2560476687E-02
          0                 9           1             8    2     1       0.9639052759E-05       8    2    1         0.2503012233E-03      0.1147158415E-02

    ------------------------------------------------
       NWT REQUIRED            9 OUTER ITERATIONS 
       AND A TOTAL OF         14 INNER ITERATIONS.
    ------------------------------------------------

 NO OUTPUT CONTROL FOR STRESS PERIOD   11   TIME STEP   16
 
 SOLVING FOR HEAD 
                                                   Max.-Head-Change                         Max.-Flux-Residual
  Residual-Control   Outer-Iter.   Inner-Iter.     Column Row Layer    Maximum-Head-Change  Column Row Layer    Maximum-Flux-Residual          L2-NORM 
          0                 1           2             5   13     1       0.8158501354E-02       5   13    1         0.4373252537E+00      0.1652963827E+01
          0                 2           2             8    2     1       0.2598458106E-02       8    2    1         0.6747451072E-01      0.3992935804E+00
          0                 3           2             8    2     1       0.1168051433E-02       8    2    1         0.3033100184E-01      0.1476606699E+00
          0                 4           2             8    2     1       0.5250580330E-03       8    2    1         0.1363430015E-01      0.6391459908E-01
          0                 5           2             8    2     1       0.2360215912E-03       8    2    1         0.6128836432E-02      0.2847943548E-01
          0                 6           1             8    2     1       0.1060950789E-03       8    2    1         0.2755004381E-02      0.1274760334E-01
          0                 7           1             8    2     1       0.4769115298E-04       8    2    1         0.1238413378E-02      0.5710049142E-02
          0                 8           1             8    2     1       0.2143776310E-04       8    2    1         0.5566831111E-03      0.2558090789E-02
          0                 9           1             8    2     1       0.9636519134E-05       8    2    1         0.2502358464E-03      0.1146090269E-02

    ------------------------------------------------
       NWT REQUIRED            9 OUTER ITERATIONS 
       AND A TOTAL OF         14 INNER ITERATIONS.
    ------------------------------------------------

 NO OUTPUT CONTROL FOR STRESS PERIOD   11   TIME STEP   17
 
 SOLVING FOR HEAD 
                                                   Max.-Head-Change                         Max.-Flux-Residual
  Residual-Control   Outer-Iter.   Inner-Iter.     Column Row Layer    Maximum-Head-Change  Column Row Layer    Maximum-Flux-Residual          L2-NORM 
          0                 1           2             5   13     1       0.7928836081E-02       5   13    1         0.4249329636E+00      0.1644978120E+01
          0                 2           2             8    2     1       0.2597805630E-02       8    2    1         0.6745768603E-01      0.3987425007E+00
          0                 3           2             8    2     1       0.1167755641E-02       8    2    1         0.3032337386E-01      0.1475283973E+00
          0                 4           2             8    2     1       0.5249239532E-03       8    2    1         0.1363084216E-01      0.6385635178E-01
          0                 5           2             8    2     1       0.2359608212E-03       8    2    1         0.6127268996E-02      0.2845331143E-01
          0                 6           1             8    2     1       0.1060675385E-03       8    2    1         0.2754293968E-02      0.1273589940E-01
          0                 7           1             8    2     1       0.4767867294E-04       8    2    1         0.1238091431E-02      0.5704807046E-02
          0                 8           1             8    2     1       0.2143210884E-04       8    2    1         0.5565372295E-03      0.2555743250E-02
          0                 9           1             8    2     1       0.9633956997E-05       8    2    1         0.2501697443E-03      0.1145760540E-02

    ------------------------------------------------
       NWT REQUIRED            9 OUTER ITERATIONS 
       AND A TOTAL OF         14 INNER ITERATIONS.
    ------------------------------------------------

 NO OUTPUT CONTROL FOR STRESS PERIOD   11   TIME STEP   18
 
 SOLVING FOR HEAD 
                                                   Max.-Head-Change                         Max.-Flux-Residual
  Residual-Control   Outer-Iter.   Inner-Iter.     Column Row Layer    Maximum-Head-Change  Column Row Layer    Maximum-Flux-Residual          L2-NORM 
          0                 1           2             5   13     1       0.7707160670E-02       5   13    1         0.4130042516E+00      0.1637271326E+01
          0                 2           2             8    2     1       0.2597145816E-02       8    2    1         0.6744066973E-01      0.3981922077E+00
          0                 3           2             8    2     1       0.1167456572E-02       8    2    1         0.3031566034E-01      0.1473960623E+00
          0                 4           2             8    2     1       0.5247884118E-03       8    2    1         0.1362734599E-01      0.6379898882E-01
          0                 5           2             8    2     1       0.2358993982E-03       8    2    1         0.6125684515E-02      0.2842757405E-01
          0                 6           1             8    2     1       0.1060397071E-03       8    2    1         0.2753575957E-02      0.1272436443E-01
          0                 7           1             8    2     1       0.4766606309E-04       8    2    1         0.1237766087E-02      0.5699639461E-02
          0                 8           1             8    2     1       0.2142639581E-04       8    2    1         0.5563898275E-03      0.2553428055E-02
          0                 9           1             8    2     1       0.9631369598E-05       8    2    1         0.2501029760E-03      0.1144001545E-02

    ------------------------------------------------
       NWT REQUIRED            9 OUTER ITERATIONS 
       AND A TOTAL OF         14 INNER ITERATIONS.
    ------------------------------------------------

 NO OUTPUT CONTROL FOR STRESS PERIOD   11   TIME STEP   19
 
 SOLVING FOR HEAD 
                                                   Max.-Head-Change                         Max.-Flux-Residual
  Residual-Control   Outer-Iter.   Inner-Iter.     Column Row Layer    Maximum-Head-Change  Column Row Layer    Maximum-Flux-Residual          L2-NORM 
          0                 1           2             5   13     1       0.7493462212E-02       5   13    1         0.4014706600E+00      0.1630509800E+01
          0                 2           2             8    2     1       0.2596480047E-02       8    2    1         0.6742346579E-01      0.3977128295E+00
          0                 3           2             8    2     1       0.1167155966E-02       8    2    1         0.3030788061E-01      0.1472698737E+00
          0                 4           2             8    2     1       0.5246529331E-03       8    2    1         0.1362383449E-01      0.6374279289E-01
          0                 5           2             8    2     1       0.2358384529E-03       8    2    1         0.6124102473E-02      0.2840235237E-01
          0                 6           1             8    2     1       0.1060123414E-03       8    2    1         0.2752864510E-02      0.1271308963E-01
          0                 7           1             8    2     1       0.4765379865E-04       8    2    1         0.1237446744E-02      0.5694604209E-02
          0                 8           1             8    2     1       0.2142090937E-04       8    2    1         0.5562467460E-03      0.2551180085E-02
          0                 9           1             8    2     1       0.9628919510E-05       8    2    1         0.2500389884E-03      0.1142998323E-02

    ------------------------------------------------
       NWT REQUIRED            9 OUTER ITERATIONS 
       AND A TOTAL OF         14 INNER ITERATIONS.
    ------------------------------------------------

 NO OUTPUT CONTROL FOR STRESS PERIOD   11   TIME STEP   20
 
 SOLVING FOR HEAD 
                                                   Max.-Head-Change                         Max.-Flux-Residual
  Residual-Control   Outer-Iter.   Inner-Iter.     Column Row Layer    Maximum-Head-Change  Column Row Layer    Maximum-Flux-Residual          L2-NORM 
          0                 1           2             5   13     1       0.7287695439E-02       5   13    1         0.3903661894E+00      0.1624192554E+01
          0                 2           2             8    2     1       0.2595811194E-02       8    2    1         0.6740617502E-01      0.3972518403E+00
          0                 3           2             8    2     1       0.1166853668E-02       8    2    1         0.3030006554E-01      0.1471442860E+00
          0                 4           2             8    2     1       0.5245163115E-03       8    2    1         0.1362030238E-01      0.6368654909E-01
          0                 5           2             8    2     1       0.2357767100E-03       8    2    1         0.6122506165E-02      0.2837703431E-01
          0                 6           1             8    2     1       0.1059844388E-03       8    2    1         0.2752143096E-02      0.1270173722E-01
          0                 7           1             8    2     1       0.4764118955E-04       8    2    1         0.1237120736E-02      0.5689517742E-02
          0                 8           1             8    2     1       0.2141521234E-04       8    2    1         0.5560994348E-03      0.2548901308E-02
          0                 9           1             8    2     1       0.9626345117E-05       8    2    1         0.2499724205E-03      0.1141977342E-02

    ------------------------------------------------
       NWT REQUIRED            9 OUTER ITERATIONS 
       AND A TOTAL OF         14 INNER ITERATIONS.
    ------------------------------------------------

 NO OUTPUT CONTROL FOR STRESS PERIOD   11   TIME STEP   21
 
 SOLVING FOR HEAD 
                                                   Max.-Head-Change                         Max.-Flux-Residual
  Residual-Control   Outer-Iter.   Inner-Iter.     Column Row Layer    Maximum-Head-Change  Column Row Layer    Maximum-Flux-Residual          L2-NORM 
          0                 1           2             5   13     1       0.7089420358E-02       5   13    1         0.3796663102E+00      0.1618378495E+01
          0                 2           2             8    2     1       0.2595093720E-02       8    2    1         0.6738761620E-01      0.3968120102E+00
          0                 3           2             8    2     1       0.1166529631E-02       8    2    1         0.3029168349E-01      0.1470189650E+00
          0                 4           2             8    2     1       0.5243699687E-03       8    2    1         0.1361651677E-01      0.6363023155E-01
          0                 5           2             8    2     1       0.2357106201E-03       8    2    1         0.6120796505E-02      0.2835169361E-01
          0                 6           1             8    2     1       0.1059545933E-03       8    2    1         0.2751371008E-02      0.1269039444E-01
          0                 7           1             8    2     1       0.4762771207E-04       8    2    1         0.1236772068E-02      0.5684422792E-02
          0                 8           1             8    2     1       0.2140912614E-04       8    2    1         0.5559419800E-03      0.2546618614E-02
          0                 9           1             8    2     1       0.9623596897E-05       8    2    1         0.2499013184E-03      0.1140954718E-02

    ------------------------------------------------
       NWT REQUIRED            9 OUTER ITERATIONS 
       AND A TOTAL OF         14 INNER ITERATIONS.
    ------------------------------------------------

 NO OUTPUT CONTROL FOR STRESS PERIOD   11   TIME STEP   22
 
 SOLVING FOR HEAD 
                                                   Max.-Head-Change                         Max.-Flux-Residual
  Residual-Control   Outer-Iter.   Inner-Iter.     Column Row Layer    Maximum-Head-Change  Column Row Layer    Maximum-Flux-Residual          L2-NORM 
          0                 1           2             5   13     1       0.6897978879E-02       5   13    1         0.3693670488E+00      0.1612765132E+01
          0                 2           2             8    2     1       0.2594417148E-02       8    2    1         0.6737012136E-01      0.3963587850E+00
          0                 3           2             8    2     1       0.1166223941E-02       8    2    1         0.3028377870E-01      0.1468917991E+00
          0                 4           2             8    2     1       0.5242318564E-03       8    2    1         0.1361294523E-01      0.6357384539E-01
          0                 5           2             8    2     1       0.2356482232E-03       8    2    1         0.6119182882E-02      0.2832635618E-01
          0                 6           1             8    2     1       0.1059264035E-03       8    2    1         0.2750641990E-02      0.1267901602E-01
          0                 7           1             8    2     1       0.4761497716E-04       8    2    1         0.1236442718E-02      0.5679336943E-02
          0                 8           1             8    2     1       0.2140337334E-04       8    2    1         0.5557931965E-03      0.2544339994E-02
          0                 9           1             8    2     1       0.9620998243E-05       8    2    1         0.2498341100E-03      0.1139933741E-02

    ------------------------------------------------
       NWT REQUIRED            9 OUTER ITERATIONS 
       AND A TOTAL OF         14 INNER ITERATIONS.
    ------------------------------------------------

 NO OUTPUT CONTROL FOR STRESS PERIOD   11   TIME STEP   23
 
 SOLVING FOR HEAD 
                                                   Max.-Head-Change                         Max.-Flux-Residual
  Residual-Control   Outer-Iter.   Inner-Iter.     Column Row Layer    Maximum-Head-Change  Column Row Layer    Maximum-Flux-Residual          L2-NORM 
          0                 1           2             5   13     1       0.6713381356E-02       5   13    1         0.3594042336E+00      0.1607765827E+01
          0                 2           2             8    2     1       0.2593736644E-02       8    2    1         0.6735252406E-01      0.3959505721E+00
          0                 3           2             8    2     1       0.1165916490E-02       8    2    1         0.3027582803E-01      0.1467672777E+00
          0                 4           2             8    2     1       0.5240929550E-03       8    2    1         0.1360935315E-01      0.6351764417E-01
          0                 5           2             8    2     1       0.2355854721E-03       8    2    1         0.6117560051E-02      0.2830104892E-01
          0                 6           1             8    2     1       0.1058980557E-03       8    2    1         0.2749908853E-02      0.1266766481E-01
          0                 7           1             8    2     1       0.4760217173E-04       8    2    1         0.1236111527E-02      0.5674249352E-02
          0                 8           1             8    2     1       0.2139758827E-04       8    2    1         0.5556435836E-03      0.2542059960E-02
          0                 9           1             8    2     1       0.9618385583E-05       8    2    1         0.2497665332E-03      0.1138911930E-02

    ------------------------------------------------
       NWT REQUIRED            9 OUTER ITERATIONS 
       AND A TOTAL OF         14 INNER ITERATIONS.
    ------------------------------------------------

 NO OUTPUT CONTROL FOR STRESS PERIOD   11   TIME STEP   24
 
 SOLVING FOR HEAD 
                                                   Max.-Head-Change                         Max.-Flux-Residual
  Residual-Control   Outer-Iter.   Inner-Iter.     Column Row Layer    Maximum-Head-Change  Column Row Layer    Maximum-Flux-Residual          L2-NORM 
          0                 1           2             5   13     1       0.6535561440E-02       5   13    1         0.3498076226E+00      0.1602986957E+01
          0                 2           2             8    2     1       0.2593052158E-02       8    2    1         0.6733482394E-01      0.3955464926E+00
          0                 3           2             8    2     1       0.1165607238E-02       8    2    1         0.3026783083E-01      0.1466436085E+00
          0                 4           2             8    2     1       0.5239532400E-03       8    2    1         0.1360574003E-01      0.6346204733E-01
          0                 5           2             8    2     1       0.2355223533E-03       8    2    1         0.6115927713E-02      0.2827602575E-01
          0                 6           1             8    2     1       0.1058695423E-03       8    2    1         0.2749171425E-02      0.1265643929E-01
          0                 7           1             8    2     1       0.4758929076E-04       8    2    1         0.1235778391E-02      0.5669216821E-02
          0                 8           1             8    2     1       0.2139176993E-04       8    2    1         0.5554930980E-03      0.2539804060E-02
          0                 9           1             8    2     1       0.9615757417E-05       8    2    1         0.2496985552E-03      0.1137900906E-02

    ------------------------------------------------
       NWT REQUIRED            9 OUTER ITERATIONS 
       AND A TOTAL OF         14 INNER ITERATIONS.
    ------------------------------------------------

 NO OUTPUT CONTROL FOR STRESS PERIOD   11   TIME STEP   25
 
 SOLVING FOR HEAD 
                                                   Max.-Head-Change                         Max.-Flux-Residual
  Residual-Control   Outer-Iter.   Inner-Iter.     Column Row Layer    Maximum-Head-Change  Column Row Layer    Maximum-Flux-Residual          L2-NORM 
          0                 1           2             5   13     1       0.6364355808E-02       5   13    1         0.3405686347E+00      0.1598512552E+01
          0                 2           2             8    2     1       0.2592363634E-02       8    2    1         0.6731701979E-01      0.3951553166E+00
          0                 3           2             8    2     1       0.1165296153E-02       8    2    1         0.3025978642E-01      0.1465196079E+00
          0                 4           2             8    2     1       0.5238126931E-03       8    2    1         0.1360210548E-01      0.6340607889E-01
          0                 5           2             8    2     1       0.2354588569E-03       8    2    1         0.6114285638E-02      0.2825083196E-01
          0                 6           1             8    2     1       0.1058408568E-03       8    2    1         0.2748429570E-02      0.1264514001E-01
          0                 7           1             8    2     1       0.4757633200E-04       8    2    1         0.1235443249E-02      0.5664152517E-02
          0                 8           1             8    2     1       0.2138591634E-04       8    2    1         0.5553417013E-03      0.2537534509E-02
          0                 9           1             8    2     1       0.9613112992E-05       8    2    1         0.2496301618E-03      0.1136900667E-02

    ------------------------------------------------
       NWT REQUIRED            9 OUTER ITERATIONS 
       AND A TOTAL OF         14 INNER ITERATIONS.
    ------------------------------------------------

 NO OUTPUT CONTROL FOR STRESS PERIOD   11   TIME STEP   26
 
 SOLVING FOR HEAD 
                                                   Max.-Head-Change                         Max.-Flux-Residual
  Residual-Control   Outer-Iter.   Inner-Iter.     Column Row Layer    Maximum-Head-Change  Column Row Layer    Maximum-Flux-Residual          L2-NORM 
          0                 1           2             5   13     1       0.6198875816E-02       5   13    1         0.3316664849E+00      0.1593919615E+01
          0                 2           2             8    2     1       0.2591626649E-02       8    2    1         0.6729795252E-01      0.3947090143E+00
          0                 3           2             8    2     1       0.1164963384E-02       8    2    1         0.3025117681E-01      0.1463901466E+00
          0                 4           2             8    2     1       0.5236624431E-03       8    2    1         0.1359821802E-01      0.6334988998E-01
          0                 5           2             8    2     1       0.2353910187E-03       8    2    1         0.6112530408E-02      0.2822571859E-01
          0                 6           1             8    2     1       0.1058102287E-03       8    2    1         0.2747637089E-02      0.1263389025E-01
          0                 7           1             8    2     1       0.4756250462E-04       8    2    1         0.1235085460E-02      0.5659111765E-02
          0                 8           1             8    2     1       0.2137967356E-04       8    2    1         0.5551801687E-03      0.2535275718E-02
          0                 9           1             8    2     1       0.9610294991E-05       8    2    1         0.2495572382E-03      0.1135871644E-02

    ------------------------------------------------
       NWT REQUIRED            9 OUTER ITERATIONS 
       AND A TOTAL OF         14 INNER ITERATIONS.
    ------------------------------------------------

 NO OUTPUT CONTROL FOR STRESS PERIOD   11   TIME STEP   27
 
 SOLVING FOR HEAD 
                                                   Max.-Head-Change                         Max.-Flux-Residual
  Residual-Control   Outer-Iter.   Inner-Iter.     Column Row Layer    Maximum-Head-Change  Column Row Layer    Maximum-Flux-Residual          L2-NORM 
          0                 1           2             5   13     1       0.6039155937E-02       5   13    1         0.3230558875E+00      0.1590077586E+01
          0                 2           2             8    2     1       0.2590930589E-02       8    2    1         0.6727995192E-01      0.3943445377E+00
          0                 3           2             8    2     1       0.1164648928E-02       8    2    1         0.3024304451E-01      0.1462674718E+00
          0                 4           2             8    2     1       0.5235203878E-03       8    2    1         0.1359454415E-01      0.6329429205E-01
          0                 5           2             8    2     1       0.2353268480E-03       8    2    1         0.6110870753E-02      0.2820068053E-01
          0                 6           1             8    2     1       0.1057812416E-03       8    2    1         0.2746887374E-02      0.1262265619E-01
          0                 7           1             8    2     1       0.4754941130E-04       8    2    1         0.1234746804E-02      0.5654074931E-02
          0                 8           1             8    2     1       0.2137375969E-04       8    2    1         0.5550271982E-03      0.2533017949E-02
          0                 9           1             8    2     1       0.9607623805E-05       8    2    1         0.2494881435E-03      0.1134859383E-02

    ------------------------------------------------
       NWT REQUIRED            9 OUTER ITERATIONS 
       AND A TOTAL OF         14 INNER ITERATIONS.
    ------------------------------------------------

 NO OUTPUT CONTROL FOR STRESS PERIOD   11   TIME STEP   28
 
 SOLVING FOR HEAD 
                                                   Max.-Head-Change                         Max.-Flux-Residual
  Residual-Control   Outer-Iter.   Inner-Iter.     Column Row Layer    Maximum-Head-Change  Column Row Layer    Maximum-Flux-Residual          L2-NORM 
          0                 1           2             5   13     1       0.5885139529E-02       5   13    1         0.3147467020E+00      0.1586450906E+01
          0                 2           2             8    2     1       0.2590230612E-02       8    2    1         0.6726184918E-01      0.3939951986E+00
          0                 3           2             8    2     1       0.1164332720E-02       8    2    1         0.3023486652E-01      0.1461474664E+00
          0                 4           2             8    2     1       0.5233775494E-03       8    2    1         0.1359084985E-01      0.6323956840E-01
          0                 5           2             8    2     1       0.2352623266E-03       8    2    1         0.6109201960E-02      0.2817596437E-01
          0                 6           1             8    2     1       0.1057520984E-03       8    2    1         0.2746133577E-02      0.1261155305E-01
          0                 7           1             8    2     1       0.4753624771E-04       8    2    1         0.1234406322E-02      0.5649091241E-02
          0                 8           1             8    2     1       0.2136781405E-04       8    2    1         0.5548734155E-03      0.2530781246E-02
          0                 9           1             8    2     1       0.9604938613E-05       8    2    1         0.2494186919E-03      0.1133855928E-02

    ------------------------------------------------
       NWT REQUIRED            9 OUTER ITERATIONS 
       AND A TOTAL OF         14 INNER ITERATIONS.
    ------------------------------------------------

 NO OUTPUT CONTROL FOR STRESS PERIOD   11   TIME STEP   29
 
 SOLVING FOR HEAD 
                                                   Max.-Head-Change                         Max.-Flux-Residual
  Residual-Control   Outer-Iter.   Inner-Iter.     Column Row Layer    Maximum-Head-Change  Column Row Layer    Maximum-Flux-Residual          L2-NORM 
          0                 1           2             8    2     1       0.5760784565E-02       5   13    1         0.3066746030E+00      0.1582832555E+01
          0                 2           2             8    2     1       0.2589526757E-02       8    2    1         0.6724364530E-01      0.3936292271E+00
          0                 3           2             8    2     1       0.1164014778E-02       8    2    1         0.3022664331E-01      0.1460240695E+00
          0                 4           2             8    2     1       0.5232339356E-03       8    2    1         0.1358713533E-01      0.6318414447E-01
          0                 5           2             8    2     1       0.2351974591E-03       8    2    1         0.6107524130E-02      0.2815106361E-01
          0                 6           1             8    2     1       0.1057227996E-03       8    2    1         0.2745375737E-02      0.1260038103E-01
          0                 7           1             8    2     1       0.4752301533E-04       8    2    1         0.1234064038E-02      0.5644081352E-02
          0                 8           1             8    2     1       0.2136183815E-04       8    2    1         0.5547188213E-03      0.2528534751E-02
          0                 9           1             8    2     1       0.9602239415E-05       8    2    1         0.2493488654E-03      0.1132848411E-02

    ------------------------------------------------
       NWT REQUIRED            9 OUTER ITERATIONS 
       AND A TOTAL OF         14 INNER ITERATIONS.
    ------------------------------------------------

 NO OUTPUT CONTROL FOR STRESS PERIOD   11   TIME STEP   30



 STREAM LISTING     PERIOD     11   STEP       30

 LAYER ROW COL. STREAM  RCH.  FLOW INTO     FLOW TO   FLOW OUT OF   OVRLND.     DIRECT     STREAM       STREAM     STREAM     STREAM   STREAMBED  STREAMBED
                SEG.NO.  NO.  STRM. RCH.    AQUIFER    STRM. RCH.    RUNOFF     PRECIP       ET          HEAD       DEPTH      WIDTH   CONDCTNC.   GRADIENT

   1    1    1     1     1    3.4817E+00  8.3080E-02   3.3987E+00  0.000E+00  0.000E+00  0.000E+00  1.09371E+03  6.642E-01  5.039E+00  2.267E-02  1.221E+00
   1    2    2     1     2    3.3987E+00  1.2764E-01   3.2710E+00  0.000E+00  0.000E+00  0.000E+00  1.08872E+03  6.571E-01  4.986E+00  3.490E-02  1.219E+00
   1    3    3     1     3    3.2710E+00  1.0786E-01   3.1632E+00  0.000E+00  0.000E+00  0.000E+00  1.08307E+03  6.489E-01  4.926E+00  2.956E-02  1.216E+00
   1    3    4     1     4    3.1632E+00  9.8483E-02   3.0647E+00  0.000E+00  0.000E+00  0.000E+00  1.07805E+03  6.416E-01  4.873E+00  2.704E-02  1.214E+00
   1    4    5     2     1    1.0647E+00  0.0000E+00   1.0647E+00  0.000E+00  0.000E+00  0.000E+00  1.07212E+03  1.817E-01  1.200E+01  0.000E+00  1.061E+00
   1    5    6     2     2    1.0647E+00  0.0000E+00   1.0647E+00  0.000E+00  0.000E+00  0.000E+00  1.06669E+03  1.817E-01  1.200E+01  0.000E+00  1.061E+00
   1    6    6     2     3    1.0647E+00  0.0000E+00   1.0647E+00  0.000E+00  0.000E+00  0.000E+00  1.06197E+03  1.817E-01  1.200E+01  0.000E+00  1.061E+00
   1    7    6     2     4    1.0647E+00  0.0000E+00   1.0647E+00  0.000E+00  0.000E+00  0.000E+00  1.05726E+03  1.817E-01  1.200E+01  0.000E+00  1.061E+00
   1    8    6     2     5    1.0647E+00  0.0000E+00   1.0647E+00  0.000E+00  0.000E+00  0.000E+00  1.05254E+03  1.817E-01  1.200E+01  0.000E+00  1.061E+00
   1    3    5     3     1    2.0000E+00  2.8252E-01   1.7175E+00  0.000E+00  0.000E+00  0.000E+00  1.07555E+03  1.909E+00  9.636E+00  7.227E-02  1.955E+00
   1    3    6     3     2    1.7175E+00  2.4905E-01   1.4684E+00  0.000E+00  0.000E+00  0.000E+00  1.07264E+03  1.727E+00  8.909E+00  6.682E-02  1.864E+00
   1    3    7     3     3    1.4684E+00  1.9718E-01   1.2712E+00  0.000E+00  0.000E+00  0.000E+00  1.06987E+03  1.555E+00  8.218E+00  5.547E-02  1.777E+00
   1    4    8     3     4    1.2712E+00  2.2567E-01   1.0456E+00  0.000E+00  0.000E+00  0.000E+00  1.06682E+03  1.364E+00  7.455E+00  6.709E-02  1.682E+00
   1    5    8     3     5    1.0456E+00  1.5790E-01   8.8768E-01  0.000E+00  0.000E+00  0.000E+00  1.06362E+03  1.164E+00  6.655E+00  4.991E-02  1.582E+00
   1    6    8     3     6    8.8768E-01  5.5980E-02   8.3170E-01  0.000E+00  0.000E+00  0.000E+00  1.06158E+03  1.036E+00  6.145E+00  1.844E-02  1.518E+00
   1    5   10     4     1    1.0000E+01  0.0000E+00   1.0000E+01  0.000E+00  0.000E+00  0.000E+00  1.07837E+03  6.385E-01  1.000E+01  0.000E+00  1.213E+00
   1    5    9     4     2    1.0000E+01  0.0000E+00   1.0000E+01  0.000E+00  0.000E+00  0.000E+00  1.07155E+03  6.385E-01  1.000E+01  0.000E+00  1.213E+00
   1    6    8     4     3    1.0000E+01  0.0000E+00   1.0000E+01  0.000E+00  0.000E+00  0.000E+00  1.06382E+03  6.385E-01  1.000E+01  0.000E+00  1.213E+00
   1    6    8     5     1    1.0832E+01  2.3262E-01   1.0599E+01  0.000E+00  0.000E+00  0.000E+00  1.05869E+03  6.881E-01  1.577E+01  6.307E-02  1.229E+00
   1    7    7     5     2    1.0599E+01  2.8607E-01   1.0313E+01  0.000E+00  0.000E+00  0.000E+00  1.05418E+03  6.822E-01  1.554E+01  7.769E-02  1.227E+00
   1    8    7     5     3    1.0313E+01  1.9716E-01   1.0116E+01  0.000E+00  0.000E+00  0.000E+00  1.04993E+03  6.766E-01  1.532E+01  5.363E-02  1.226E+00
   1    8    6     5     4    1.0116E+01  1.3929E-01   9.9766E+00  0.000E+00  0.000E+00  0.000E+00  1.04692E+03  6.727E-01  1.517E+01  3.792E-02  1.224E+00
   1    9    6     6     1    1.1041E+01  0.0000E+00   1.1041E+01  0.000E+00  0.000E+00  0.000E+00  1.04348E+03  7.478E-01  1.200E+01  0.000E+00  1.249E+00
   1   10    7     6     2    1.1041E+01  0.0000E+00   1.1041E+01  0.000E+00  0.000E+00  0.000E+00  1.03893E+03  7.478E-01  1.200E+01  0.000E+00  1.249E+00
   1   11    7     6     3    1.1041E+01  0.0000E+00   1.1041E+01  0.000E+00  0.000E+00  0.000E+00  1.03438E+03  7.478E-01  1.200E+01  0.000E+00  1.249E+00
   1   12    7     6     4    1.1041E+01  0.0000E+00   1.1041E+01  0.000E+00  0.000E+00  0.000E+00  1.02984E+03  7.478E-01  1.200E+01  0.000E+00  1.249E+00
   1   13    7     6     5    1.1041E+01  0.0000E+00   1.1041E+01  0.000E+00  0.000E+00  0.000E+00  1.02666E+03  7.478E-01  1.200E+01  0.000E+00  5.489E-02
   1   14    9     7     1    1.5000E+02  1.2662E+00   1.4873E+02  0.000E+00  0.000E+00  0.000E+00  1.03987E+03  2.288E+00  5.530E+01  5.593E-01  7.546E-01
   1   13    8     7     2    1.4873E+02  1.9263E+00   1.4681E+02  0.000E+00  0.000E+00  0.000E+00  1.03478E+03  2.279E+00  5.526E+01  6.148E-01  1.044E+00
   1   13    7     7     3    1.4681E+02  1.7850E+00   1.4502E+02  0.000E+00  0.000E+00  0.000E+00  1.02969E+03  2.270E+00  5.521E+01  5.584E-01  1.066E+00
   1   13    6     8     1    1.5606E+02  1.1741E+00   1.5489E+02  0.000E+00  0.000E+00  0.000E+00  1.02473E+03  2.855E+00  4.140E+01  4.219E-01  9.277E-01
   1   13    5     8     2    1.5489E+02  4.1379E-01   1.5448E+02  0.000E+00  0.000E+00  0.000E+00  1.01847E+03  2.849E+00  4.132E+01  4.210E-01  3.276E-01
   1   13    4     8     3    1.5448E+02 -1.8145E+00   1.5629E+02  0.000E+00  0.000E+00  0.000E+00  1.01223E+03  2.854E+00  4.139E+01  4.218E+00 -1.434E-01
   1   13    3     8     4    1.5629E+02 -3.4809E+00   1.5977E+02  0.000E+00  0.000E+00  0.000E+00  1.00600E+03  2.872E+00  4.165E+01  4.244E+00 -2.734E-01
   1   13    2     8     5    1.5977E+02 -2.5655E+00   1.6234E+02  0.000E+00  0.000E+00  0.000E+00  9.99768E+02  2.893E+00  4.195E+01  4.275E+00 -2.001E-01
   1   13    1     8     6    1.6234E+02 -1.8948E+00   1.6423E+02  0.000E+00  0.000E+00  0.000E+00  9.94783E+02  2.908E+00  4.216E+01  2.578E+00 -2.450E-01
   1    6    8     9     1    0.0000E+00  0.0000E+00   0.0000E+00  0.000E+00  0.000E+00  0.000E+00  1.07850E+03  0.000E+00  4.000E+00  0.000E+00  1.000E+00





UNSATURATED ZONE PACKAGE VOLUMETRIC BUDGET FOR  TIME STEP    30 STRESS PERIOD   11
  ------------------------------------------------------------------------------



     CUMULATIVE VOLUMES      L**3       RATES FOR THIS TIME STEP      L**3/T
     ------------------                 ------------------------

           IN:                                      IN:
           ---                                      ---
        INFILTRATION =    42532964.2819          INFILTRATION =           0.8475

          OUT:                                     OUT:
          ----                                     ----
              UZF ET =   570221342.1702                UZF ET =           0.8925
        UZF RECHARGE =   687083655.7244          UZF RECHARGE =          23.4358

            IN - OUT = -1214772033.6127              IN - OUT =         -23.4808

          STORAGE:                                 STORAGE:
          --------                                 --------
      STORAGE CHANGE = -1214763354.0208        STORAGE CHANGE =         -23.4808

 PERCENT DISCREPANCY IS DIFFERENCE BETWEEN IN-OUT MINUS CHANGE IN STORAGE
 DIVIDED BY THE AVERAGE OF IN AND OUT TIMES 100

 PERCENT DISCREPANCY =          -0.00     PERCENT DISCREPANCY =           0.00






1
  VOLUMETRIC BUDGET FOR ENTIRE MODEL AT END OF TIME STEP   30, STRESS PERIOD  11
  ------------------------------------------------------------------------------

     CUMULATIVE VOLUMES      L**3       RATES FOR THIS TIME STEP      L**3/T
     ------------------                 ------------------------

           IN:                                      IN:
           ---                                      ---
             STORAGE =    28227222.0000               STORAGE =       6.0652E-03
       CONSTANT HEAD =           0.0000         CONSTANT HEAD =           0.0000
               WELLS =           0.0000                 WELLS =           0.0000
     HEAD DEP BOUNDS =     8243451.0000       HEAD DEP BOUNDS =           0.2810
      STREAM LEAKAGE =   298345408.0000        STREAM LEAKAGE =           9.0059
        UZF RECHARGE =   687083520.0000          UZF RECHARGE =          23.4358
               GW ET =           0.0000                 GW ET =           0.0000
     SURFACE LEAKAGE =           0.0000       SURFACE LEAKAGE =           0.0000

            TOTAL IN =  1021899584.0000              TOTAL IN =          32.7288

          OUT:                                     OUT:
          ----                                     ----
             STORAGE =   716974848.0000               STORAGE =          22.5596
       CONSTANT HEAD =           0.0000         CONSTANT HEAD =           0.0000
               WELLS =     1016027.8750                 WELLS =           0.0000
     HEAD DEP BOUNDS =     8277405.0000       HEAD DEP BOUNDS =           0.2857
      STREAM LEAKAGE =   224576128.0000        STREAM LEAKAGE =           9.7556
        UZF RECHARGE =           0.0000          UZF RECHARGE =           0.0000
               GW ET =    70996352.0000                 GW ET =           0.1244
     SURFACE LEAKAGE =           0.0000       SURFACE LEAKAGE =           0.0000

           TOTAL OUT =  1021840704.0000             TOTAL OUT =          32.7253

            IN - OUT =       58880.0000              IN - OUT =       3.5706E-03

 PERCENT DISCREPANCY =           0.01     PERCENT DISCREPANCY =           0.01






         TIME SUMMARY AT END OF TIME STEP   30 IN STRESS PERIOD   11
                    SECONDS     MINUTES      HOURS       DAYS        YEARS
                    -----------------------------------------------------------
   TIME STEP LENGTH  87600.      1460.0      24.333      1.0139     2.77588E-03
 STRESS PERIOD TIME 2.62800E+06  43800.      730.00      30.417     8.32763E-02
         TOTAL TIME 2.89080E+07 4.81800E+05  8030.0      334.58     0.91604    
1
1
                            STRESS PERIOD NO.   12, LENGTH =   2628000.    
                            -----------------------------------------------

                              NUMBER OF TIME STEPS =    30

                               MULTIPLIER FOR DELT =     1.000

                            INITIAL TIME STEP SIZE =   87600.00    

 WELL NO.  LAYER   ROW   COL   STRESS RATE         
 --------------------------------------------------
      1      1      6      4       0.000    
      2      1      6      7       0.000    
      3      1      7      4       0.000    
      4      1      7      5       0.000    
      5      1      8      4       0.000    
      6      1      8      5       0.000    
      7      1      9      4       0.000    
      8      1      9      5       0.000    
      9      1     10      4       0.000    
     10      1     10      5       0.000    

     10 WELLS

 REUSING NON-PARAMETER GHB CELLS FROM LAST STRESS PERIOD

      2 GHB CELLS

 REUSING STREAM SEGMENT DATA FROM LAST STRESS PERIOD



            AREAL INFILTRATION RATE
 READING ON UNIT   19 WITH FORMAT: (10F4.0)            

            1           2           3           4           5           6           7           8           9          10
 ........................................................................................................................
   1   1.0000E-10  2.0000E-10   0.000       0.000       0.000       0.000       0.000       0.000       0.000       0.000    
   2   2.0000E-10  1.0000E-10  2.0000E-10   0.000       0.000      8.0000E-10  8.0000E-10  5.0000E-10   0.000       0.000    
   3    0.000      5.0000E-10  1.0000E-10  1.0000E-10  8.0000E-10  8.0000E-10  5.0000E-10  5.0000E-10   0.000       0.000    
   4   8.0000E-10  5.0000E-10  1.0000E-10  1.0000E-10  1.0000E-10  1.0000E-10  1.0000E-10  1.0000E-10  2.0000E-10   0.000    
   5   8.0000E-10  5.0000E-10  1.0000E-10  1.0000E-10  1.0000E-10  1.0000E-10  1.0000E-10  1.0000E-10  1.0000E-10  1.0000E-10
   6   8.0000E-10  5.0000E-10  5.0000E-10  2.0000E-10  2.0000E-10  1.0000E-10  1.0000E-10  1.0000E-10  1.0000E-10  5.0000E-10
   7   8.0000E-10  5.0000E-10  5.0000E-10  2.0000E-10  2.0000E-10  1.0000E-10  1.0000E-10  2.0000E-10  2.0000E-10   0.000    
   8    0.000      5.0000E-10  5.0000E-10  2.0000E-10  2.0000E-10  1.0000E-10  1.0000E-10  2.0000E-10  5.0000E-10   0.000    
   9    0.000      5.0000E-10  5.0000E-10  2.0000E-10  2.0000E-10  1.0000E-10  1.0000E-10  2.0000E-10  5.0000E-10   0.000    
  10    0.000      5.0000E-10  5.0000E-10  2.0000E-10  2.0000E-10  1.0000E-10  1.0000E-10  2.0000E-10  5.0000E-10  8.0000E-10
  11    0.000      1.0000E-10  1.0000E-10  1.0000E-10  1.0000E-10  1.0000E-10  1.0000E-10  2.0000E-10  5.0000E-10   0.000    
  12   1.0000E-10  1.0000E-10  1.0000E-10  1.0000E-10  1.0000E-10  1.0000E-10  1.0000E-10  1.0000E-10  2.0000E-10   0.000    
  13   1.0000E-10  1.0000E-10  2.0000E-10  2.0000E-10  2.0000E-10  2.0000E-10  2.0000E-10  1.0000E-10  1.0000E-10   0.000    
  14    0.000      2.0000E-10  5.0000E-10  5.0000E-10  5.0000E-10  5.0000E-10  5.0000E-10  2.0000E-10  1.0000E-10   0.000    
  15    0.000       0.000      8.0000E-10  8.0000E-10  8.0000E-10  8.0000E-10   0.000       0.000       0.000       0.000    

                  ET RATE =  1.000000E-10

 USING ET EXTINCTION DEPTH FROM PREVIOUS STRESS PERIOD. CURRENT PERIOD IS:      12

 USING EXTINCTION WATER CONTENT FROM PREVIOUS STRESS PERIOD. CURRENT PERIOD IS:      12
 
 SOLVING FOR HEAD 
                                                   Max.-Head-Change                         Max.-Flux-Residual
  Residual-Control   Outer-Iter.   Inner-Iter.     Column Row Layer    Maximum-Head-Change  Column Row Layer    Maximum-Flux-Residual          L2-NORM 
          0                 1           2             5   13     1       0.5953985381E-02       5   13    1         0.3182823293E+00      0.1589381977E+01
          0                 2           2             8    2     1       0.2588774384E-02       8    2    1         0.6722417893E-01      0.3935897953E+00
          0                 3           2             8    2     1       0.1163675082E-02       8    2    1         0.3021785403E-01      0.1459002346E+00
          0                 4           2             8    2     1       0.5230805675E-03       8    2    1         0.1358316699E-01      0.6312817668E-01
          0                 5           2             8    2     1       0.2351282181E-03       8    2    1         0.6105732498E-02      0.2812610591E-01
          0                 6           1             8    2     1       0.1056915403E-03       8    2    1         0.2744566870E-02      0.1258920840E-01
          0                 7           1             8    2     1       0.4750890332E-04       8    2    1         0.1233698870E-02      0.5639075058E-02
          0                 8           1             8    2     1       0.2135546757E-04       8    2    1         0.5545539731E-03      0.2526291280E-02
          0                 9           1             8    2     1       0.9599363638E-05       8    2    1         0.2492744511E-03      0.1131843133E-02

    ------------------------------------------------
       NWT REQUIRED            9 OUTER ITERATIONS 
       AND A TOTAL OF         14 INNER ITERATIONS.
    ------------------------------------------------

 NO OUTPUT CONTROL FOR STRESS PERIOD   12   TIME STEP    1
 
 SOLVING FOR HEAD 
                                                   Max.-Head-Change                         Max.-Flux-Residual
  Residual-Control   Outer-Iter.   Inner-Iter.     Column Row Layer    Maximum-Head-Change  Column Row Layer    Maximum-Flux-Residual          L2-NORM 
          0                 1           2             5   13     1       0.5805810410E-02       5   13    1         0.3103135132E+00      0.1585679341E+01
          0                 2           2             8    2     1       0.2588063138E-02       8    2    1         0.6720578229E-01      0.3932369909E+00
          0                 3           2             8    2     1       0.1163353837E-02       8    2    1         0.3020954465E-01      0.1457802717E+00
          0                 4           2             8    2     1       0.5229354774E-03       8    2    1         0.1357941395E-01      0.6307366828E-01
          0                 5           2             8    2     1       0.2350626902E-03       8    2    1         0.6104037447E-02      0.2810154329E-01
          0                 6           1             8    2     1       0.1056619471E-03       8    2    1         0.2743801335E-02      0.1257818572E-01
          0                 7           1             8    2     1       0.4749553888E-04       8    2    1         0.1233353140E-02      0.5634132540E-02
          0                 8           1             8    2     1       0.2134943239E-04       8    2    1         0.5543978398E-03      0.2524074978E-02
          0                 9           1             8    2     1       0.9596638428E-05       8    2    1         0.2492039423E-03      0.1130849377E-02

    ------------------------------------------------
       NWT REQUIRED            9 OUTER ITERATIONS 
       AND A TOTAL OF         14 INNER ITERATIONS.
    ------------------------------------------------

 NO OUTPUT CONTROL FOR STRESS PERIOD   12   TIME STEP    2
 
 SOLVING FOR HEAD 
                                                   Max.-Head-Change                         Max.-Flux-Residual
  Residual-Control   Outer-Iter.   Inner-Iter.     Column Row Layer    Maximum-Head-Change  Column Row Layer    Maximum-Flux-Residual          L2-NORM 
          0                 1           2             8    2     1       0.5755960323E-02       5   13    1         0.3026079087E+00      0.1582205069E+01
          0                 2           2             8    2     1       0.2587347949E-02       8    2    1         0.6718728496E-01      0.3928928586E+00
          0                 3           2             8    2     1       0.1163030782E-02       8    2    1         0.3020118904E-01      0.1456612951E+00
          0                 4           2             8    2     1       0.5227895573E-03       8    2    1         0.1357563971E-01      0.6301962417E-01
          0                 5           2             8    2     1       0.2349967822E-03       8    2    1         0.6102332674E-02      0.2807718802E-01
          0                 6           1             8    2     1       0.1056321792E-03       8    2    1         0.2743031343E-02      0.1256725244E-01
          0                 7           1             8    2     1       0.4748209492E-04       8    2    1         0.1233005376E-02      0.5629227118E-02
          0                 8           1             8    2     1       0.2134336069E-04       8    2    1         0.5542407753E-03      0.2521875036E-02
          0                 9           1             8    2     1       0.9593896461E-05       8    2    1         0.2491330105E-03      0.1129862587E-02

    ------------------------------------------------
       NWT REQUIRED            9 OUTER ITERATIONS 
       AND A TOTAL OF         14 INNER ITERATIONS.
    ------------------------------------------------

 NO OUTPUT CONTROL FOR STRESS PERIOD   12   TIME STEP    3
 
 SOLVING FOR HEAD 
                                                   Max.-Head-Change                         Max.-Flux-Residual
  Residual-Control   Outer-Iter.   Inner-Iter.     Column Row Layer    Maximum-Head-Change  Column Row Layer    Maximum-Flux-Residual          L2-NORM 
          0                 1           2             8    2     1       0.5754268905E-02       5   13    1         0.2951684620E+00      0.1578934563E+01
          0                 2           2             8    2     1       0.2586584364E-02       8    2    1         0.6716752611E-01      0.3925513234E+00
          0                 3           2             8    2     1       0.1162686075E-02       8    2    1         0.3019226903E-01      0.1455429461E+00
          0                 4           2             8    2     1       0.5226339500E-03       8    2    1         0.1357161295E-01      0.6296617401E-01
          0                 5           2             8    2     1       0.2349265408E-03       8    2    1         0.6100514936E-02      0.2805310151E-01
          0                 6           1             8    2     1       0.1056004728E-03       8    2    1         0.2742210810E-02      0.1255642544E-01
          0                 7           1             8    2     1       0.4746778306E-04       8    2    1         0.1232634995E-02      0.5624364282E-02
          0                 8           1             8    2     1       0.2133690107E-04       8    2    1         0.5540735971E-03      0.2519691375E-02
          0                 9           1             8    2     1       0.9590980916E-05       8    2    1         0.2490575524E-03      0.1128882428E-02

    ------------------------------------------------
       NWT REQUIRED            9 OUTER ITERATIONS 
       AND A TOTAL OF         14 INNER ITERATIONS.
    ------------------------------------------------

 NO OUTPUT CONTROL FOR STRESS PERIOD   12   TIME STEP    4
 
 SOLVING FOR HEAD 
                                                   Max.-Head-Change                         Max.-Flux-Residual
  Residual-Control   Outer-Iter.   Inner-Iter.     Column Row Layer    Maximum-Head-Change  Column Row Layer    Maximum-Flux-Residual          L2-NORM 
          0                 1           2             8    2     1       0.5752669481E-02       5   13    1         0.2879966543E+00      0.1575800729E+01
          0                 2           2             8    2     1       0.2585862048E-02       8    2    1         0.6714884067E-01      0.3922045611E+00
          0                 3           2             8    2     1       0.1162359881E-02       8    2    1         0.3018383054E-01      0.1454212407E+00
          0                 4           2             8    2     1       0.5224866476E-03       8    2    1         0.1356780220E-01      0.6291137854E-01
          0                 5           2             8    2     1       0.2348600237E-03       8    2    1         0.6098794082E-02      0.2802847057E-01
          0                 6           1             8    2     1       0.1055704373E-03       8    2    1         0.2741433741E-02      0.1254537905E-01
          0                 7           1             8    2     1       0.4745422104E-04       8    2    1         0.1232284113E-02      0.5619412181E-02
          0                 8           1             8    2     1       0.2133077736E-04       8    2    1         0.5539151645E-03      0.2517471612E-02
          0                 9           1             8    2     1       0.9588215939E-05       8    2    1         0.2489860205E-03      0.1127887496E-02

    ------------------------------------------------
       NWT REQUIRED            9 OUTER ITERATIONS 
       AND A TOTAL OF         14 INNER ITERATIONS.
    ------------------------------------------------

 OUTPUT CONTROL FOR STRESS PERIOD   12   TIME STEP    5
    PRINT BUDGET
    SAVE BUDGET
 UBUDSV SAVING "         STORAGE" ON UNIT102 AT TIME STEP     5, STRESS PERIOD   12
 UBUDSV SAVING "   CONSTANT HEAD" ON UNIT102 AT TIME STEP     5, STRESS PERIOD   12
 UBUDSV SAVING "FLOW RIGHT FACE " ON UNIT102 AT TIME STEP     5, STRESS PERIOD   12
 UBUDSV SAVING "FLOW FRONT FACE " ON UNIT102 AT TIME STEP     5, STRESS PERIOD   12

  HEAD DEP BOUNDS   PERIOD   12   STEP     5
 BOUNDARY      1   LAYER   1   ROW    13   COL     1   RATE   -0.286152    
 BOUNDARY      2   LAYER   1   ROW    14   COL     9   RATE    0.280989    



 STREAM LISTING     PERIOD     12   STEP        5

 LAYER ROW COL. STREAM  RCH.  FLOW INTO     FLOW TO   FLOW OUT OF   OVRLND.     DIRECT     STREAM       STREAM     STREAM     STREAM   STREAMBED  STREAMBED
                SEG.NO.  NO.  STRM. RCH.    AQUIFER    STRM. RCH.    RUNOFF     PRECIP       ET          HEAD       DEPTH      WIDTH   CONDCTNC.   GRADIENT

   1    1    1     1     1    3.3000E+00  8.1313E-02   3.2187E+00  0.000E+00  0.000E+00  0.000E+00  1.09370E+03  6.519E-01  4.948E+00  2.227E-02  1.217E+00
   1    2    2     1     2    3.2187E+00  1.2488E-01   3.0938E+00  0.000E+00  0.000E+00  0.000E+00  1.08870E+03  6.446E-01  4.895E+00  3.426E-02  1.215E+00
   1    3    3     1     3    3.0938E+00  1.0547E-01   2.9883E+00  0.000E+00  0.000E+00  0.000E+00  1.08306E+03  6.363E-01  4.834E+00  2.901E-02  1.212E+00
   1    3    4     1     4    2.9883E+00  9.6268E-02   2.8921E+00  0.000E+00  0.000E+00  0.000E+00  1.07804E+03  6.289E-01  4.780E+00  2.653E-02  1.210E+00
   1    4    5     2     1    8.9207E-01  0.0000E+00   8.9207E-01  0.000E+00  0.000E+00  0.000E+00  1.07210E+03  1.634E-01  1.200E+01  0.000E+00  1.054E+00
   1    5    6     2     2    8.9207E-01  0.0000E+00   8.9207E-01  0.000E+00  0.000E+00  0.000E+00  1.06667E+03  1.634E-01  1.200E+01  0.000E+00  1.054E+00
   1    6    6     2     3    8.9207E-01  0.0000E+00   8.9207E-01  0.000E+00  0.000E+00  0.000E+00  1.06196E+03  1.634E-01  1.200E+01  0.000E+00  1.054E+00
   1    7    6     2     4    8.9207E-01  0.0000E+00   8.9207E-01  0.000E+00  0.000E+00  0.000E+00  1.05724E+03  1.634E-01  1.200E+01  0.000E+00  1.054E+00
   1    8    6     2     5    8.9207E-01  0.0000E+00   8.9207E-01  0.000E+00  0.000E+00  0.000E+00  1.05252E+03  1.634E-01  1.200E+01  0.000E+00  1.054E+00
   1    3    5     3     1    2.0000E+00  2.8252E-01   1.7175E+00  0.000E+00  0.000E+00  0.000E+00  1.07555E+03  1.909E+00  9.636E+00  7.227E-02  1.955E+00
   1    3    6     3     2    1.7175E+00  2.4905E-01   1.4684E+00  0.000E+00  0.000E+00  0.000E+00  1.07264E+03  1.727E+00  8.909E+00  6.682E-02  1.864E+00
   1    3    7     3     3    1.4684E+00  1.9718E-01   1.2712E+00  0.000E+00  0.000E+00  0.000E+00  1.06987E+03  1.555E+00  8.218E+00  5.547E-02  1.777E+00
   1    4    8     3     4    1.2712E+00  2.2567E-01   1.0456E+00  0.000E+00  0.000E+00  0.000E+00  1.06682E+03  1.364E+00  7.455E+00  6.709E-02  1.682E+00
   1    5    8     3     5    1.0456E+00  1.5790E-01   8.8768E-01  0.000E+00  0.000E+00  0.000E+00  1.06362E+03  1.164E+00  6.655E+00  4.991E-02  1.582E+00
   1    6    8     3     6    8.8768E-01  5.5980E-02   8.3170E-01  0.000E+00  0.000E+00  0.000E+00  1.06158E+03  1.036E+00  6.145E+00  1.844E-02  1.518E+00
   1    5   10     4     1    1.0000E+01  0.0000E+00   1.0000E+01  0.000E+00  0.000E+00  0.000E+00  1.07837E+03  6.385E-01  1.000E+01  0.000E+00  1.213E+00
   1    5    9     4     2    1.0000E+01  0.0000E+00   1.0000E+01  0.000E+00  0.000E+00  0.000E+00  1.07155E+03  6.385E-01  1.000E+01  0.000E+00  1.213E+00
   1    6    8     4     3    1.0000E+01  0.0000E+00   1.0000E+01  0.000E+00  0.000E+00  0.000E+00  1.06382E+03  6.385E-01  1.000E+01  0.000E+00  1.213E+00
   1    6    8     5     1    1.0832E+01  2.3262E-01   1.0599E+01  0.000E+00  0.000E+00  0.000E+00  1.05869E+03  6.881E-01  1.577E+01  6.307E-02  1.229E+00
   1    7    7     5     2    1.0599E+01  2.8607E-01   1.0313E+01  0.000E+00  0.000E+00  0.000E+00  1.05418E+03  6.822E-01  1.554E+01  7.769E-02  1.227E+00
   1    8    7     5     3    1.0313E+01  1.9716E-01   1.0116E+01  0.000E+00  0.000E+00  0.000E+00  1.04993E+03  6.766E-01  1.532E+01  5.363E-02  1.226E+00
   1    8    6     5     4    1.0116E+01  1.3929E-01   9.9766E+00  0.000E+00  0.000E+00  0.000E+00  1.04692E+03  6.727E-01  1.517E+01  3.792E-02  1.224E+00
   1    9    6     6     1    1.0869E+01  0.0000E+00   1.0869E+01  0.000E+00  0.000E+00  0.000E+00  1.04347E+03  7.408E-01  1.200E+01  0.000E+00  1.247E+00
   1   10    7     6     2    1.0869E+01  0.0000E+00   1.0869E+01  0.000E+00  0.000E+00  0.000E+00  1.03892E+03  7.408E-01  1.200E+01  0.000E+00  1.247E+00
   1   11    7     6     3    1.0869E+01  0.0000E+00   1.0869E+01  0.000E+00  0.000E+00  0.000E+00  1.03438E+03  7.408E-01  1.200E+01  0.000E+00  1.247E+00
   1   12    7     6     4    1.0869E+01  0.0000E+00   1.0869E+01  0.000E+00  0.000E+00  0.000E+00  1.02983E+03  7.408E-01  1.200E+01  0.000E+00  1.247E+00
   1   13    7     6     5    1.0869E+01  0.0000E+00   1.0869E+01  0.000E+00  0.000E+00  0.000E+00  1.02665E+03  7.408E-01  1.200E+01  0.000E+00  5.056E-02
   1   14    9     7     1    1.5000E+02  1.2657E+00   1.4873E+02  0.000E+00  0.000E+00  0.000E+00  1.03987E+03  2.288E+00  5.530E+01  5.593E-01  7.543E-01
   1   13    8     7     2    1.4873E+02  1.9255E+00   1.4681E+02  0.000E+00  0.000E+00  0.000E+00  1.03478E+03  2.279E+00  5.526E+01  6.148E-01  1.044E+00
   1   13    7     7     3    1.4681E+02  1.7817E+00   1.4503E+02  0.000E+00  0.000E+00  0.000E+00  1.02969E+03  2.270E+00  5.521E+01  5.584E-01  1.064E+00
   1   13    6     8     1    1.5590E+02  1.1648E+00   1.5473E+02  0.000E+00  0.000E+00  0.000E+00  1.02473E+03  2.854E+00  4.138E+01  4.217E-01  9.208E-01
   1   13    5     8     2    1.5473E+02  4.0232E-01   1.5433E+02  0.000E+00  0.000E+00  0.000E+00  1.01847E+03  2.848E+00  4.130E+01  4.209E-01  3.186E-01
   1   13    4     8     3    1.5433E+02 -1.8509E+00   1.5618E+02  0.000E+00  0.000E+00  0.000E+00  1.01223E+03  2.853E+00  4.137E+01  4.216E+00 -1.463E-01
   1   13    3     8     4    1.5618E+02 -3.5056E+00   1.5969E+02  0.000E+00  0.000E+00  0.000E+00  1.00600E+03  2.872E+00  4.164E+01  4.243E+00 -2.754E-01
   1   13    2     8     5    1.5969E+02 -2.5923E+00   1.6228E+02  0.000E+00  0.000E+00  0.000E+00  9.99767E+02  2.892E+00  4.194E+01  4.274E+00 -2.022E-01
   1   13    1     8     6    1.6228E+02 -1.9274E+00   1.6420E+02  0.000E+00  0.000E+00  0.000E+00  9.94783E+02  2.908E+00  4.216E+01  2.578E+00 -2.492E-01
   1    6    8     9     1    0.0000E+00  0.0000E+00   0.0000E+00  0.000E+00  0.000E+00  0.000E+00  1.07850E+03  0.000E+00  4.000E+00  0.000E+00  1.000E+00



 UBDSV3 SAVING "     NETRECHARGE" ON UNIT 100 AT TIME STEP     5, STRESS PERIOD  12
 UBDSV3 SAVING "    NETDISCHARGE" ON UNIT 101 AT TIME STEP     5, STRESS PERIOD  12
 UBDSV3 SAVING "           GW ET" ON UNIT  61 AT TIME STEP     5, STRESS PERIOD  12
 UBDSV3 SAVING "    UZF RECHARGE" ON UNIT  61 AT TIME STEP     5, STRESS PERIOD  12
 UBDSV3 SAVING " SURFACE LEAKAGE" ON UNIT  61 AT TIME STEP     5, STRESS PERIOD  12
 UBDSV3 SAVING "       HORT+DUNN" ON UNIT  61 AT TIME STEP     5, STRESS PERIOD  12
 UBDSV3 SAVING "  STORAGE CHANGE" ON UNIT  61 AT TIME STEP     5, STRESS PERIOD  12


UNSATURATED ZONE PACKAGE VOLUMETRIC BUDGET FOR  TIME STEP     5 STRESS PERIOD   12
  ------------------------------------------------------------------------------



     CUMULATIVE VOLUMES      L**3       RATES FOR THIS TIME STEP      L**3/T
     ------------------                 ------------------------

           IN:                                      IN:
           ---                                      ---
        INFILTRATION =    42904169.2819          INFILTRATION =           0.8475

          OUT:                                     OUT:
          ----                                     ----
              UZF ET =   570348362.1700                UZF ET =           0.2900
        UZF RECHARGE =   697335904.1179          UZF RECHARGE =          23.3872

            IN - OUT = -1224780097.0061              IN - OUT =         -22.8297

          STORAGE:                                 STORAGE:
          --------                                 --------
      STORAGE CHANGE = -1224771417.4201        STORAGE CHANGE =         -22.8297

 PERCENT DISCREPANCY IS DIFFERENCE BETWEEN IN-OUT MINUS CHANGE IN STORAGE
 DIVIDED BY THE AVERAGE OF IN AND OUT TIMES 100

 PERCENT DISCREPANCY =          -0.00     PERCENT DISCREPANCY =           0.00






1
  VOLUMETRIC BUDGET FOR ENTIRE MODEL AT END OF TIME STEP    5, STRESS PERIOD  12
  ------------------------------------------------------------------------------

     CUMULATIVE VOLUMES      L**3       RATES FOR THIS TIME STEP      L**3/T
     ------------------                 ------------------------

           IN:                                      IN:
           ---                                      ---
             STORAGE =    28230424.0000               STORAGE =       9.6128E-03
       CONSTANT HEAD =           0.0000         CONSTANT HEAD =           0.0000
               WELLS =           0.0000                 WELLS =           0.0000
     HEAD DEP BOUNDS =     8366529.0000       HEAD DEP BOUNDS =           0.2810
      STREAM LEAKAGE =   302279008.0000        STREAM LEAKAGE =           8.9715
        UZF RECHARGE =   697335744.0000          UZF RECHARGE =          23.3872
               GW ET =           0.0000                 GW ET =           0.0000
     SURFACE LEAKAGE =           0.0000       SURFACE LEAKAGE =           0.0000

            TOTAL IN =  1036211712.0000              TOTAL IN =          32.6492

          OUT:                                     OUT:
          ----                                     ----
             STORAGE =   726852224.0000               STORAGE =          22.4834
       CONSTANT HEAD =           0.0000         CONSTANT HEAD =           0.0000
               WELLS =     1016027.8750                 WELLS =           0.0000
     HEAD DEP BOUNDS =     8402660.0000       HEAD DEP BOUNDS =           0.2862
      STREAM LEAKAGE =   228884000.0000        STREAM LEAKAGE =           9.8762
        UZF RECHARGE =           0.0000          UZF RECHARGE =           0.0000
               GW ET =    70996352.0000                 GW ET =       1.7923E-10
     SURFACE LEAKAGE =           0.0000       SURFACE LEAKAGE =           0.0000

           TOTAL OUT =  1036151296.0000             TOTAL OUT =          32.6457

            IN - OUT =       60416.0000              IN - OUT =       3.5515E-03

 PERCENT DISCREPANCY =           0.01     PERCENT DISCREPANCY =           0.01






         TIME SUMMARY AT END OF TIME STEP    5 IN STRESS PERIOD   12
                    SECONDS     MINUTES      HOURS       DAYS        YEARS
                    -----------------------------------------------------------
   TIME STEP LENGTH  87600.      1460.0      24.333      1.0139     2.77588E-03
 STRESS PERIOD TIME 4.38000E+05  7300.0      121.67      5.0694     1.38794E-02
         TOTAL TIME 2.93460E+07 4.89100E+05  8151.7      339.65     0.92992    
1
 
 SOLVING FOR HEAD 
                                                   Max.-Head-Change                         Max.-Flux-Residual
  Residual-Control   Outer-Iter.   Inner-Iter.     Column Row Layer    Maximum-Head-Change  Column Row Layer    Maximum-Flux-Residual          L2-NORM 
          0                 1           2             8    2     1       0.5750962035E-02       5   13    1         0.2810663752E+00      0.1572883756E+01
          0                 2           2             8    2     1       0.2585091196E-02       8    2    1         0.6712889443E-01      0.3918803913E+00
          0                 3           2             8    2     1       0.1162011880E-02       8    2    1         0.3017482558E-01      0.1453019598E+00
          0                 4           2             8    2     1       0.5223295473E-03       8    2    1         0.1356373692E-01      0.6285703470E-01
          0                 5           2             8    2     1       0.2347891058E-03       8    2    1         0.6096958888E-02      0.2800398927E-01
          0                 6           1             8    2     1       0.1055384243E-03       8    2    1         0.2740605298E-02      0.1253439421E-01
          0                 7           1             8    2     1       0.4743977037E-04       8    2    1         0.1231910148E-02      0.5614486669E-02
          0                 8           1             8    2     1       0.2132425471E-04       8    2    1         0.5537463594E-03      0.2515262706E-02
          0                 9           1             8    2     1       0.9585272132E-05       8    2    1         0.2489098245E-03      0.1126896667E-02

    ------------------------------------------------
       NWT REQUIRED            9 OUTER ITERATIONS 
       AND A TOTAL OF         14 INNER ITERATIONS.
    ------------------------------------------------

 NO OUTPUT CONTROL FOR STRESS PERIOD   12   TIME STEP    6
 
 SOLVING FOR HEAD 
                                                   Max.-Head-Change                         Max.-Flux-Residual
  Residual-Control   Outer-Iter.   Inner-Iter.     Column Row Layer    Maximum-Head-Change  Column Row Layer    Maximum-Flux-Residual          L2-NORM 
          0                 1           2             8    2     1       0.5749346417E-02       5   13    1         0.2743393931E+00      0.1570203342E+01
          0                 2           2             8    2     1       0.2584361542E-02       8    2    1         0.6711001968E-01      0.3915675435E+00
          0                 3           2             8    2     1       0.1161682361E-02       8    2    1         0.3016630132E-01      0.1451836270E+00
          0                 4           2             8    2     1       0.5221807393E-03       8    2    1         0.1355988732E-01      0.6280301268E-01
          0                 5           2             8    2     1       0.2347219074E-03       8    2    1         0.6095220442E-02      0.2797964446E-01
          0                 6           1             8    2     1       0.1055080798E-03       8    2    1         0.2739820260E-02      0.1252346734E-01
          0                 7           1             8    2     1       0.4742606904E-04       8    2    1         0.1231555664E-02      0.5609586062E-02
          0                 8           1             8    2     1       0.2131806796E-04       8    2    1         0.5535862948E-03      0.2513065501E-02
          0                 9           1             8    2     1       0.9582478892E-05       8    2    1         0.2488375546E-03      0.1125911082E-02

    ------------------------------------------------
       NWT REQUIRED            9 OUTER ITERATIONS 
       AND A TOTAL OF         14 INNER ITERATIONS.
    ------------------------------------------------

 NO OUTPUT CONTROL FOR STRESS PERIOD   12   TIME STEP    7
 
 SOLVING FOR HEAD 
                                                   Max.-Head-Change                         Max.-Flux-Residual
  Residual-Control   Outer-Iter.   Inner-Iter.     Column Row Layer    Maximum-Head-Change  Column Row Layer    Maximum-Flux-Residual          L2-NORM 
          0                 1           2             8    2     1       0.5747622754E-02       2    1    1         0.2689494797E+00      0.1567736967E+01
          0                 2           2             8    2     1       0.2583583445E-02       8    2    1         0.6708988434E-01      0.3912665756E+00
          0                 3           2             8    2     1       0.1161331123E-02       8    2    1         0.3015721187E-01      0.1450661769E+00
          0                 4           2             8    2     1       0.5220221934E-03       8    2    1         0.1355578431E-01      0.6274930093E-01
          0                 5           2             8    2     1       0.2346503431E-03       8    2    1         0.6093368389E-02      0.2795543988E-01
          0                 6           1             8    2     1       0.1054757787E-03       8    2    1         0.2738984291E-02      0.1251260216E-01
          0                 7           1             8    2     1       0.4741148957E-04       8    2    1         0.1231178333E-02      0.5604712142E-02
          0                 8           1             8    2     1       0.2131148779E-04       8    2    1         0.5534159865E-03      0.2510879331E-02
          0                 9           1             8    2     1       0.9579508573E-05       8    2    1         0.2487606837E-03      0.1124930754E-02

    ------------------------------------------------
       NWT REQUIRED            9 OUTER ITERATIONS 
       AND A TOTAL OF         14 INNER ITERATIONS.
    ------------------------------------------------

 NO OUTPUT CONTROL FOR STRESS PERIOD   12   TIME STEP    8
 
 SOLVING FOR HEAD 
                                                   Max.-Head-Change                         Max.-Flux-Residual
  Residual-Control   Outer-Iter.   Inner-Iter.     Column Row Layer    Maximum-Head-Change  Column Row Layer    Maximum-Flux-Residual          L2-NORM 
          0                 1           2             8    2     1       0.5745991137E-02       2    1    1         0.2682802235E+00      0.1565149400E+01
          0                 2           2             8    2     1       0.2582846644E-02       8    2    1         0.6707082306E-01      0.3909556592E+00
          0                 3           2             8    2     1       0.1160998412E-02       8    2    1         0.3014860428E-01      0.1449534404E+00
          0                 4           2             8    2     1       0.5218719594E-03       8    2    1         0.1355189748E-01      0.6269565954E-01
          0                 5           2             8    2     1       0.2345825083E-03       8    2    1         0.6091613321E-02      0.2793125719E-01
          0                 6           1             8    2     1       0.1054451501E-03       8    2    1         0.2738191829E-02      0.1250174875E-01
          0                 7           1             8    2     1       0.4739766093E-04       8    2    1         0.1230820529E-02      0.5599843542E-02
          0                 8           1             8    2     1       0.2130524427E-04       8    2    1         0.5532544392E-03      0.2508695574E-02
          0                 9           1             8    2     1       0.9576690322E-05       8    2    1         0.2486877521E-03      0.1123951584E-02

    ------------------------------------------------
       NWT REQUIRED            9 OUTER ITERATIONS 
       AND A TOTAL OF         14 INNER ITERATIONS.
    ------------------------------------------------

 NO OUTPUT CONTROL FOR STRESS PERIOD   12   TIME STEP    9
 
 SOLVING FOR HEAD 
                                                   Max.-Head-Change                         Max.-Flux-Residual
  Residual-Control   Outer-Iter.   Inner-Iter.     Column Row Layer    Maximum-Head-Change  Column Row Layer    Maximum-Flux-Residual          L2-NORM 
          0                 1           2             8    2     1       0.5744251534E-02       2    1    1         0.2676215897E+00      0.1562898770E+01
          0                 2           2             8    2     1       0.2582061371E-02       8    2    1         0.6705050162E-01      0.3906493701E+00
          0                 3           2             8    2     1       0.1160643944E-02       8    2    1         0.3013943105E-01      0.1448289693E+00
          0                 4           2             8    2     1       0.5217119591E-03       8    2    1         0.1354775676E-01      0.6264142077E-01
          0                 5           2             8    2     1       0.2345102897E-03       8    2    1         0.6089744293E-02      0.2790687796E-01
          0                 6           1             8    2     1       0.1054125542E-03       8    2    1         0.2737348220E-02      0.1249081353E-01
          0                 7           1             8    2     1       0.4738294915E-04       8    2    1         0.1230439769E-02      0.5594941177E-02
          0                 8           1             8    2     1       0.2129860482E-04       8    2    1         0.5530825895E-03      0.2506497693E-02
          0                 9           1             8    2     1       0.9573693491E-05       8    2    1         0.2486101871E-03      0.1122966654E-02

    ------------------------------------------------
       NWT REQUIRED            9 OUTER ITERATIONS 
       AND A TOTAL OF         14 INNER ITERATIONS.
    ------------------------------------------------

 OUTPUT CONTROL FOR STRESS PERIOD   12   TIME STEP   10
    PRINT BUDGET
    SAVE BUDGET
 UBUDSV SAVING "         STORAGE" ON UNIT102 AT TIME STEP    10, STRESS PERIOD   12
 UBUDSV SAVING "   CONSTANT HEAD" ON UNIT102 AT TIME STEP    10, STRESS PERIOD   12
 UBUDSV SAVING "FLOW RIGHT FACE " ON UNIT102 AT TIME STEP    10, STRESS PERIOD   12
 UBUDSV SAVING "FLOW FRONT FACE " ON UNIT102 AT TIME STEP    10, STRESS PERIOD   12

  HEAD DEP BOUNDS   PERIOD   12   STEP    10
 BOUNDARY      1   LAYER   1   ROW    13   COL     1   RATE   -0.286527    
 BOUNDARY      2   LAYER   1   ROW    14   COL     9   RATE    0.280961    



 STREAM LISTING     PERIOD     12   STEP       10

 LAYER ROW COL. STREAM  RCH.  FLOW INTO     FLOW TO   FLOW OUT OF   OVRLND.     DIRECT     STREAM       STREAM     STREAM     STREAM   STREAMBED  STREAMBED
                SEG.NO.  NO.  STRM. RCH.    AQUIFER    STRM. RCH.    RUNOFF     PRECIP       ET          HEAD       DEPTH      WIDTH   CONDCTNC.   GRADIENT

   1    1    1     1     1    3.3000E+00  8.1313E-02   3.2187E+00  0.000E+00  0.000E+00  0.000E+00  1.09370E+03  6.519E-01  4.948E+00  2.227E-02  1.217E+00
   1    2    2     1     2    3.2187E+00  1.2488E-01   3.0938E+00  0.000E+00  0.000E+00  0.000E+00  1.08870E+03  6.446E-01  4.895E+00  3.426E-02  1.215E+00
   1    3    3     1     3    3.0938E+00  1.0547E-01   2.9883E+00  0.000E+00  0.000E+00  0.000E+00  1.08306E+03  6.363E-01  4.834E+00  2.901E-02  1.212E+00
   1    3    4     1     4    2.9883E+00  9.6268E-02   2.8921E+00  0.000E+00  0.000E+00  0.000E+00  1.07804E+03  6.289E-01  4.780E+00  2.653E-02  1.210E+00
   1    4    5     2     1    8.9207E-01  0.0000E+00   8.9207E-01  0.000E+00  0.000E+00  0.000E+00  1.07210E+03  1.634E-01  1.200E+01  0.000E+00  1.054E+00
   1    5    6     2     2    8.9207E-01  0.0000E+00   8.9207E-01  0.000E+00  0.000E+00  0.000E+00  1.06667E+03  1.634E-01  1.200E+01  0.000E+00  1.054E+00
   1    6    6     2     3    8.9207E-01  0.0000E+00   8.9207E-01  0.000E+00  0.000E+00  0.000E+00  1.06196E+03  1.634E-01  1.200E+01  0.000E+00  1.054E+00
   1    7    6     2     4    8.9207E-01  0.0000E+00   8.9207E-01  0.000E+00  0.000E+00  0.000E+00  1.05724E+03  1.634E-01  1.200E+01  0.000E+00  1.054E+00
   1    8    6     2     5    8.9207E-01  0.0000E+00   8.9207E-01  0.000E+00  0.000E+00  0.000E+00  1.05252E+03  1.634E-01  1.200E+01  0.000E+00  1.054E+00
   1    3    5     3     1    2.0000E+00  2.8252E-01   1.7175E+00  0.000E+00  0.000E+00  0.000E+00  1.07555E+03  1.909E+00  9.636E+00  7.227E-02  1.955E+00
   1    3    6     3     2    1.7175E+00  2.4905E-01   1.4684E+00  0.000E+00  0.000E+00  0.000E+00  1.07264E+03  1.727E+00  8.909E+00  6.682E-02  1.864E+00
   1    3    7     3     3    1.4684E+00  1.9718E-01   1.2712E+00  0.000E+00  0.000E+00  0.000E+00  1.06987E+03  1.555E+00  8.218E+00  5.547E-02  1.777E+00
   1    4    8     3     4    1.2712E+00  2.2567E-01   1.0456E+00  0.000E+00  0.000E+00  0.000E+00  1.06682E+03  1.364E+00  7.455E+00  6.709E-02  1.682E+00
   1    5    8     3     5    1.0456E+00  1.5790E-01   8.8768E-01  0.000E+00  0.000E+00  0.000E+00  1.06362E+03  1.164E+00  6.655E+00  4.991E-02  1.582E+00
   1    6    8     3     6    8.8768E-01  5.5980E-02   8.3170E-01  0.000E+00  0.000E+00  0.000E+00  1.06158E+03  1.036E+00  6.145E+00  1.844E-02  1.518E+00
   1    5   10     4     1    1.0000E+01  0.0000E+00   1.0000E+01  0.000E+00  0.000E+00  0.000E+00  1.07837E+03  6.385E-01  1.000E+01  0.000E+00  1.213E+00
   1    5    9     4     2    1.0000E+01  0.0000E+00   1.0000E+01  0.000E+00  0.000E+00  0.000E+00  1.07155E+03  6.385E-01  1.000E+01  0.000E+00  1.213E+00
   1    6    8     4     3    1.0000E+01  0.0000E+00   1.0000E+01  0.000E+00  0.000E+00  0.000E+00  1.06382E+03  6.385E-01  1.000E+01  0.000E+00  1.213E+00
   1    6    8     5     1    1.0832E+01  2.3262E-01   1.0599E+01  0.000E+00  0.000E+00  0.000E+00  1.05869E+03  6.881E-01  1.577E+01  6.307E-02  1.229E+00
   1    7    7     5     2    1.0599E+01  2.8607E-01   1.0313E+01  0.000E+00  0.000E+00  0.000E+00  1.05418E+03  6.822E-01  1.554E+01  7.769E-02  1.227E+00
   1    8    7     5     3    1.0313E+01  1.9716E-01   1.0116E+01  0.000E+00  0.000E+00  0.000E+00  1.04993E+03  6.766E-01  1.532E+01  5.363E-02  1.226E+00
   1    8    6     5     4    1.0116E+01  1.3929E-01   9.9766E+00  0.000E+00  0.000E+00  0.000E+00  1.04692E+03  6.727E-01  1.517E+01  3.792E-02  1.224E+00
   1    9    6     6     1    1.0869E+01  0.0000E+00   1.0869E+01  0.000E+00  0.000E+00  0.000E+00  1.04347E+03  7.408E-01  1.200E+01  0.000E+00  1.247E+00
   1   10    7     6     2    1.0869E+01  0.0000E+00   1.0869E+01  0.000E+00  0.000E+00  0.000E+00  1.03892E+03  7.408E-01  1.200E+01  0.000E+00  1.247E+00
   1   11    7     6     3    1.0869E+01  0.0000E+00   1.0869E+01  0.000E+00  0.000E+00  0.000E+00  1.03438E+03  7.408E-01  1.200E+01  0.000E+00  1.247E+00
   1   12    7     6     4    1.0869E+01  0.0000E+00   1.0869E+01  0.000E+00  0.000E+00  0.000E+00  1.02983E+03  7.408E-01  1.200E+01  0.000E+00  1.247E+00
   1   13    7     6     5    1.0869E+01  0.0000E+00   1.0869E+01  0.000E+00  0.000E+00  0.000E+00  1.02665E+03  7.408E-01  1.200E+01  0.000E+00  4.853E-02
   1   14    9     7     1    1.5000E+02  1.2653E+00   1.4873E+02  0.000E+00  0.000E+00  0.000E+00  1.03987E+03  2.288E+00  5.530E+01  5.593E-01  7.541E-01
   1   13    8     7     2    1.4873E+02  1.9246E+00   1.4681E+02  0.000E+00  0.000E+00  0.000E+00  1.03478E+03  2.279E+00  5.526E+01  6.148E-01  1.044E+00
   1   13    7     7     3    1.4681E+02  1.7783E+00   1.4503E+02  0.000E+00  0.000E+00  0.000E+00  1.02969E+03  2.270E+00  5.521E+01  5.584E-01  1.062E+00
   1   13    6     8     1    1.5590E+02  1.1572E+00   1.5474E+02  0.000E+00  0.000E+00  0.000E+00  1.02473E+03  2.854E+00  4.138E+01  4.217E-01  9.147E-01
   1   13    5     8     2    1.5474E+02  3.9275E-01   1.5435E+02  0.000E+00  0.000E+00  0.000E+00  1.01847E+03  2.849E+00  4.130E+01  4.209E-01  3.110E-01
   1   13    4     8     3    1.5435E+02 -1.8779E+00   1.5623E+02  0.000E+00  0.000E+00  0.000E+00  1.01223E+03  2.854E+00  4.138E+01  4.217E+00 -1.485E-01
   1   13    3     8     4    1.5623E+02 -3.5222E+00   1.5975E+02  0.000E+00  0.000E+00  0.000E+00  1.00600E+03  2.872E+00  4.165E+01  4.244E+00 -2.766E-01
   1   13    2     8     5    1.5975E+02 -2.6096E+00   1.6236E+02  0.000E+00  0.000E+00  0.000E+00  9.99768E+02  2.893E+00  4.195E+01  4.275E+00 -2.035E-01
   1   13    1     8     6    1.6236E+02 -1.9516E+00   1.6431E+02  0.000E+00  0.000E+00  0.000E+00  9.94783E+02  2.908E+00  4.217E+01  2.578E+00 -2.523E-01
   1    6    8     9     1    0.0000E+00  0.0000E+00   0.0000E+00  0.000E+00  0.000E+00  0.000E+00  1.07850E+03  0.000E+00  4.000E+00  0.000E+00  1.000E+00



 UBDSV3 SAVING "     NETRECHARGE" ON UNIT 100 AT TIME STEP    10, STRESS PERIOD  12
 UBDSV3 SAVING "    NETDISCHARGE" ON UNIT 101 AT TIME STEP    10, STRESS PERIOD  12
 UBDSV3 SAVING "           GW ET" ON UNIT  61 AT TIME STEP    10, STRESS PERIOD  12
 UBDSV3 SAVING "    UZF RECHARGE" ON UNIT  61 AT TIME STEP    10, STRESS PERIOD  12
 UBDSV3 SAVING " SURFACE LEAKAGE" ON UNIT  61 AT TIME STEP    10, STRESS PERIOD  12
 UBDSV3 SAVING "       HORT+DUNN" ON UNIT  61 AT TIME STEP    10, STRESS PERIOD  12
 UBDSV3 SAVING "  STORAGE CHANGE" ON UNIT  61 AT TIME STEP    10, STRESS PERIOD  12


UNSATURATED ZONE PACKAGE VOLUMETRIC BUDGET FOR  TIME STEP    10 STRESS PERIOD   12
  ------------------------------------------------------------------------------



     CUMULATIVE VOLUMES      L**3       RATES FOR THIS TIME STEP      L**3/T
     ------------------                 ------------------------

           IN:                                      IN:
           ---                                      ---
        INFILTRATION =    43275374.2819          INFILTRATION =           0.8475

          OUT:                                     OUT:
          ----                                     ----
              UZF ET =   570475382.1700                UZF ET =           0.2900
        UZF RECHARGE =   707570950.0569          UZF RECHARGE =          23.3502

            IN - OUT = -1234770957.9450              IN - OUT =         -22.7927

          STORAGE:                                 STORAGE:
          --------                                 --------
      STORAGE CHANGE = -1234762278.3637        STORAGE CHANGE =         -22.7927

 PERCENT DISCREPANCY IS DIFFERENCE BETWEEN IN-OUT MINUS CHANGE IN STORAGE
 DIVIDED BY THE AVERAGE OF IN AND OUT TIMES 100

 PERCENT DISCREPANCY =          -0.00     PERCENT DISCREPANCY =           0.00






1
  VOLUMETRIC BUDGET FOR ENTIRE MODEL AT END OF TIME STEP   10, STRESS PERIOD  12
  ------------------------------------------------------------------------------

     CUMULATIVE VOLUMES      L**3       RATES FOR THIS TIME STEP      L**3/T
     ------------------                 ------------------------

           IN:                                      IN:
           ---                                      ---
             STORAGE =    28234046.0000               STORAGE =       7.4040E-03
       CONSTANT HEAD =           0.0000         CONSTANT HEAD =           0.0000
               WELLS =           0.0000                 WELLS =           0.0000
     HEAD DEP BOUNDS =     8489595.0000       HEAD DEP BOUNDS =           0.2810
      STREAM LEAKAGE =   306202688.0000        STREAM LEAKAGE =           8.9496
        UZF RECHARGE =   707570752.0000          UZF RECHARGE =          23.3502
               GW ET =           0.0000                 GW ET =           0.0000
     SURFACE LEAKAGE =           0.0000       SURFACE LEAKAGE =           0.0000

            TOTAL IN =  1050497088.0000              TOTAL IN =          32.5881

          OUT:                                     OUT:
          ----                                     ----
             STORAGE =   736661888.0000               STORAGE =          22.3368
       CONSTANT HEAD =           0.0000         CONSTANT HEAD =           0.0000
               WELLS =     1016027.8750                 WELLS =           0.0000
     HEAD DEP BOUNDS =     8528097.0000       HEAD DEP BOUNDS =           0.2865
      STREAM LEAKAGE =   233232800.0000        STREAM LEAKAGE =           9.9613
        UZF RECHARGE =           0.0000          UZF RECHARGE =           0.0000
               GW ET =    70996352.0000                 GW ET =       1.7474E-10
     SURFACE LEAKAGE =           0.0000       SURFACE LEAKAGE =           0.0000

           TOTAL OUT =  1050435200.0000             TOTAL OUT =          32.5846

            IN - OUT =       61888.0000              IN - OUT =       3.5362E-03

 PERCENT DISCREPANCY =           0.01     PERCENT DISCREPANCY =           0.01






         TIME SUMMARY AT END OF TIME STEP   10 IN STRESS PERIOD   12
                    SECONDS     MINUTES      HOURS       DAYS        YEARS
                    -----------------------------------------------------------
   TIME STEP LENGTH  87600.      1460.0      24.333      1.0139     2.77588E-03
 STRESS PERIOD TIME 8.76000E+05  14600.      243.33      10.139     2.77588E-02
         TOTAL TIME 2.97840E+07 4.96400E+05  8273.3      344.72     0.94380    
1
 
 SOLVING FOR HEAD 
                                                   Max.-Head-Change                         Max.-Flux-Residual
  Residual-Control   Outer-Iter.   Inner-Iter.     Column Row Layer    Maximum-Head-Change  Column Row Layer    Maximum-Flux-Residual          L2-NORM 
          0                 1           2             8    2     1       0.5742604096E-02       2    1    1         0.2669737652E+00      0.1560799650E+01
          0                 2           2             8    2     1       0.2581317503E-02       8    2    1         0.6703125587E-01      0.3903743901E+00
          0                 3           2             8    2     1       0.1160308077E-02       8    2    1         0.3013074107E-01      0.1447187249E+00
          0                 4           2             8    2     1       0.5215603148E-03       8    2    1         0.1354383312E-01      0.6259056698E-01
          0                 5           2             8    2     1       0.2344418246E-03       8    2    1         0.6087972782E-02      0.2788379784E-01
          0                 6           1             8    2     1       0.1053816439E-03       8    2    1         0.2736548411E-02      0.1248038939E-01
          0                 7           1             8    2     1       0.4736899470E-04       8    2    1         0.1230078684E-02      0.5590240113E-02
          0                 8           1             8    2     1       0.2129230502E-04       8    2    1         0.5529195766E-03      0.2504379587E-02
          0                 9           1             8    2     1       0.9570849979E-05       8    2    1         0.2485366003E-03      0.1122012139E-02

    ------------------------------------------------
       NWT REQUIRED            9 OUTER ITERATIONS 
       AND A TOTAL OF         14 INNER ITERATIONS.
    ------------------------------------------------

 NO OUTPUT CONTROL FOR STRESS PERIOD   12   TIME STEP   11
 
 SOLVING FOR HEAD 
                                                   Max.-Head-Change                         Max.-Flux-Residual
  Residual-Control   Outer-Iter.   Inner-Iter.     Column Row Layer    Maximum-Head-Change  Column Row Layer    Maximum-Flux-Residual          L2-NORM 
          0                 1           2             8    2     1       0.5740848937E-02       2    1    1         0.2663365420E+00      0.1558823854E+01
          0                 2           2             8    2     1       0.2580525340E-02       8    2    1         0.6701075334E-01      0.3901080436E+00
          0                 3           2             8    2     1       0.1159950557E-02       8    2    1         0.3012148762E-01      0.1446087534E+00
          0                 4           2             8    2     1       0.5213989639E-03       8    2    1         0.1353965687E-01      0.6253967859E-01
          0                 5           2             8    2     1       0.2343690077E-03       8    2    1         0.6086088022E-02      0.2786071928E-01
          0                 6           1             8    2     1       0.1053487836E-03       8    2    1         0.2735697838E-02      0.1246997834E-01
          0                 7           1             8    2     1       0.4735416562E-04       8    2    1         0.1229694834E-02      0.5585550839E-02
          0                 8           1             8    2     1       0.2128561355E-04       8    2    1         0.5527463582E-03      0.2502267228E-02
          0                 9           1             8    2     1       0.9567830138E-05       8    2    1         0.2484584335E-03      0.1121061527E-02

    ------------------------------------------------
       NWT REQUIRED            9 OUTER ITERATIONS 
       AND A TOTAL OF         14 INNER ITERATIONS.
    ------------------------------------------------

 NO OUTPUT CONTROL FOR STRESS PERIOD   12   TIME STEP   12
 
 SOLVING FOR HEAD 
                                                   Max.-Head-Change                         Max.-Flux-Residual
  Residual-Control   Outer-Iter.   Inner-Iter.     Column Row Layer    Maximum-Head-Change  Column Row Layer    Maximum-Flux-Residual          L2-NORM 
          0                 1           2             8    2     1       0.5739086471E-02       2    1    1         0.2657097299E+00      0.1556844106E+01
          0                 2           2             8    2     1       0.2579729913E-02       8    2    1         0.6699016561E-01      0.3897931328E+00
          0                 3           2             8    2     1       0.1159591580E-02       8    2    1         0.3011219613E-01      0.1444885102E+00
          0                 4           2             8    2     1       0.5212369615E-03       8    2    1         0.1353546363E-01      0.6248596528E-01
          0                 5           2             8    2     1       0.2342959000E-03       8    2    1         0.6084195667E-02      0.2783662605E-01
          0                 6           1             8    2     1       0.1053157927E-03       8    2    1         0.2734843866E-02      0.1245917313E-01
          0                 7           1             8    2     1       0.4733927826E-04       8    2    1         0.1229309467E-02      0.5580705005E-02
          0                 8           1             8    2     1       0.2127889582E-04       8    2    1         0.5525724618E-03      0.2500094730E-02
          0                 9           1             8    2     1       0.9564799042E-05       8    2    1         0.2483799626E-03      0.1120089729E-02

    ------------------------------------------------
       NWT REQUIRED            9 OUTER ITERATIONS 
       AND A TOTAL OF         14 INNER ITERATIONS.
    ------------------------------------------------

 NO OUTPUT CONTROL FOR STRESS PERIOD   12   TIME STEP   13
 
 SOLVING FOR HEAD 
                                                   Max.-Head-Change                         Max.-Flux-Residual
  Residual-Control   Outer-Iter.   Inner-Iter.     Column Row Layer    Maximum-Head-Change  Column Row Layer    Maximum-Flux-Residual          L2-NORM 
          0                 1           2             8    2     1       0.5737416408E-02       2    1    1         0.2650927329E+00      0.1554429810E+01
          0                 2           2             8    2     1       0.2578975842E-02       8    2    1         0.6697065560E-01      0.3894634386E+00
          0                 3           2             8    2     1       0.1159251112E-02       8    2    1         0.3010338697E-01      0.1443690476E+00
          0                 4           2             8    2     1       0.5210832440E-03       8    2    1         0.1353148627E-01      0.6243244436E-01
          0                 5           2             8    2     1       0.2342265005E-03       8    2    1         0.6082399937E-02      0.2781258735E-01
          0                 6           1             8    2     1       0.1052844615E-03       8    2    1         0.2734033146E-02      0.1244839244E-01
          0                 7           1             8    2     1       0.4732513448E-04       8    2    1         0.1228943467E-02      0.5575870896E-02
          0                 8           1             8    2     1       0.2127251049E-04       8    2    1         0.5524072321E-03      0.2497927798E-02
          0                 9           1             8    2     1       0.9561916763E-05       8    2    1         0.2483053779E-03      0.1119115872E-02

    ------------------------------------------------
       NWT REQUIRED            9 OUTER ITERATIONS 
       AND A TOTAL OF         14 INNER ITERATIONS.
    ------------------------------------------------

 NO OUTPUT CONTROL FOR STRESS PERIOD   12   TIME STEP   14
 
 SOLVING FOR HEAD 
                                                   Max.-Head-Change                         Max.-Flux-Residual
  Residual-Control   Outer-Iter.   Inner-Iter.     Column Row Layer    Maximum-Head-Change  Column Row Layer    Maximum-Flux-Residual          L2-NORM 
          0                 1           2             8    2     1       0.5735638588E-02       2    1    1         0.2644861648E+00      0.1552736350E+01
          0                 2           2             8    2     1       0.2578173504E-02       8    2    1         0.6694988859E-01      0.3891924393E+00
          0                 3           2             8    2     1       0.1158889024E-02       8    2    1         0.3009401478E-01      0.1442529637E+00
          0                 4           2             8    2     1       0.5209198412E-03       8    2    1         0.1352725671E-01      0.6237915697E-01
          0                 5           2             8    2     1       0.2341527622E-03       8    2    1         0.6080491240E-02      0.2778858545E-01
          0                 6           1             8    2     1       0.1052511873E-03       8    2    1         0.2733171828E-02      0.1243762487E-01
          0                 7           1             8    2     1       0.4731011981E-04       8    2    1         0.1228554799E-02      0.5571043320E-02
          0                 8           1             8    2     1       0.2126573573E-04       8    2    1         0.5522318545E-03      0.2495763538E-02
          0                 9           1             8    2     1       0.9558859905E-05       8    2    1         0.2482262432E-03      0.1118145811E-02

    ------------------------------------------------
       NWT REQUIRED            9 OUTER ITERATIONS 
       AND A TOTAL OF         14 INNER ITERATIONS.
    ------------------------------------------------

 OUTPUT CONTROL FOR STRESS PERIOD   12   TIME STEP   15
    PRINT BUDGET
    PRINT HEAD FOR ALL LAYERS
    SAVE HEAD FOR ALL LAYERS
    SAVE BUDGET
 UBUDSV SAVING "         STORAGE" ON UNIT102 AT TIME STEP    15, STRESS PERIOD   12
 UBUDSV SAVING "   CONSTANT HEAD" ON UNIT102 AT TIME STEP    15, STRESS PERIOD   12
 UBUDSV SAVING "FLOW RIGHT FACE " ON UNIT102 AT TIME STEP    15, STRESS PERIOD   12
 UBUDSV SAVING "FLOW FRONT FACE " ON UNIT102 AT TIME STEP    15, STRESS PERIOD   12

  HEAD DEP BOUNDS   PERIOD   12   STEP    15
 BOUNDARY      1   LAYER   1   ROW    13   COL     1   RATE   -0.286824    
 BOUNDARY      2   LAYER   1   ROW    14   COL     9   RATE    0.280936    



 STREAM LISTING     PERIOD     12   STEP       15

 LAYER ROW COL. STREAM  RCH.  FLOW INTO     FLOW TO   FLOW OUT OF   OVRLND.     DIRECT     STREAM       STREAM     STREAM     STREAM   STREAMBED  STREAMBED
                SEG.NO.  NO.  STRM. RCH.    AQUIFER    STRM. RCH.    RUNOFF     PRECIP       ET          HEAD       DEPTH      WIDTH   CONDCTNC.   GRADIENT

   1    1    1     1     1    3.3000E+00  8.1313E-02   3.2187E+00  0.000E+00  0.000E+00  0.000E+00  1.09370E+03  6.519E-01  4.948E+00  2.227E-02  1.217E+00
   1    2    2     1     2    3.2187E+00  1.2488E-01   3.0938E+00  0.000E+00  0.000E+00  0.000E+00  1.08870E+03  6.446E-01  4.895E+00  3.426E-02  1.215E+00
   1    3    3     1     3    3.0938E+00  1.0547E-01   2.9883E+00  0.000E+00  0.000E+00  0.000E+00  1.08306E+03  6.363E-01  4.834E+00  2.901E-02  1.212E+00
   1    3    4     1     4    2.9883E+00  9.6268E-02   2.8921E+00  0.000E+00  0.000E+00  0.000E+00  1.07804E+03  6.289E-01  4.780E+00  2.653E-02  1.210E+00
   1    4    5     2     1    8.9207E-01  0.0000E+00   8.9207E-01  0.000E+00  0.000E+00  0.000E+00  1.07210E+03  1.634E-01  1.200E+01  0.000E+00  1.054E+00
   1    5    6     2     2    8.9207E-01  0.0000E+00   8.9207E-01  0.000E+00  0.000E+00  0.000E+00  1.06667E+03  1.634E-01  1.200E+01  0.000E+00  1.054E+00
   1    6    6     2     3    8.9207E-01  0.0000E+00   8.9207E-01  0.000E+00  0.000E+00  0.000E+00  1.06196E+03  1.634E-01  1.200E+01  0.000E+00  1.054E+00
   1    7    6     2     4    8.9207E-01  0.0000E+00   8.9207E-01  0.000E+00  0.000E+00  0.000E+00  1.05724E+03  1.634E-01  1.200E+01  0.000E+00  1.054E+00
   1    8    6     2     5    8.9207E-01  0.0000E+00   8.9207E-01  0.000E+00  0.000E+00  0.000E+00  1.05252E+03  1.634E-01  1.200E+01  0.000E+00  1.054E+00
   1    3    5     3     1    2.0000E+00  2.8252E-01   1.7175E+00  0.000E+00  0.000E+00  0.000E+00  1.07555E+03  1.909E+00  9.636E+00  7.227E-02  1.955E+00
   1    3    6     3     2    1.7175E+00  2.4905E-01   1.4684E+00  0.000E+00  0.000E+00  0.000E+00  1.07264E+03  1.727E+00  8.909E+00  6.682E-02  1.864E+00
   1    3    7     3     3    1.4684E+00  1.9718E-01   1.2712E+00  0.000E+00  0.000E+00  0.000E+00  1.06987E+03  1.555E+00  8.218E+00  5.547E-02  1.777E+00
   1    4    8     3     4    1.2712E+00  2.2567E-01   1.0456E+00  0.000E+00  0.000E+00  0.000E+00  1.06682E+03  1.364E+00  7.455E+00  6.709E-02  1.682E+00
   1    5    8     3     5    1.0456E+00  1.5790E-01   8.8768E-01  0.000E+00  0.000E+00  0.000E+00  1.06362E+03  1.164E+00  6.655E+00  4.991E-02  1.582E+00
   1    6    8     3     6    8.8768E-01  5.5980E-02   8.3170E-01  0.000E+00  0.000E+00  0.000E+00  1.06158E+03  1.036E+00  6.145E+00  1.844E-02  1.518E+00
   1    5   10     4     1    1.0000E+01  0.0000E+00   1.0000E+01  0.000E+00  0.000E+00  0.000E+00  1.07837E+03  6.385E-01  1.000E+01  0.000E+00  1.213E+00
   1    5    9     4     2    1.0000E+01  0.0000E+00   1.0000E+01  0.000E+00  0.000E+00  0.000E+00  1.07155E+03  6.385E-01  1.000E+01  0.000E+00  1.213E+00
   1    6    8     4     3    1.0000E+01  0.0000E+00   1.0000E+01  0.000E+00  0.000E+00  0.000E+00  1.06382E+03  6.385E-01  1.000E+01  0.000E+00  1.213E+00
   1    6    8     5     1    1.0832E+01  2.3262E-01   1.0599E+01  0.000E+00  0.000E+00  0.000E+00  1.05869E+03  6.881E-01  1.577E+01  6.307E-02  1.229E+00
   1    7    7     5     2    1.0599E+01  2.8607E-01   1.0313E+01  0.000E+00  0.000E+00  0.000E+00  1.05418E+03  6.822E-01  1.554E+01  7.769E-02  1.227E+00
   1    8    7     5     3    1.0313E+01  1.9716E-01   1.0116E+01  0.000E+00  0.000E+00  0.000E+00  1.04993E+03  6.766E-01  1.532E+01  5.363E-02  1.226E+00
   1    8    6     5     4    1.0116E+01  1.3929E-01   9.9766E+00  0.000E+00  0.000E+00  0.000E+00  1.04692E+03  6.727E-01  1.517E+01  3.792E-02  1.224E+00
   1    9    6     6     1    1.0869E+01  0.0000E+00   1.0869E+01  0.000E+00  0.000E+00  0.000E+00  1.04347E+03  7.408E-01  1.200E+01  0.000E+00  1.247E+00
   1   10    7     6     2    1.0869E+01  0.0000E+00   1.0869E+01  0.000E+00  0.000E+00  0.000E+00  1.03892E+03  7.408E-01  1.200E+01  0.000E+00  1.247E+00
   1   11    7     6     3    1.0869E+01  0.0000E+00   1.0869E+01  0.000E+00  0.000E+00  0.000E+00  1.03438E+03  7.408E-01  1.200E+01  0.000E+00  1.247E+00
   1   12    7     6     4    1.0869E+01  0.0000E+00   1.0869E+01  0.000E+00  0.000E+00  0.000E+00  1.02983E+03  7.408E-01  1.200E+01  0.000E+00  1.247E+00
   1   13    7     6     5    1.0869E+01  0.0000E+00   1.0869E+01  0.000E+00  0.000E+00  0.000E+00  1.02665E+03  7.408E-01  1.200E+01  0.000E+00  4.647E-02
   1   14    9     7     1    1.5000E+02  1.2650E+00   1.4874E+02  0.000E+00  0.000E+00  0.000E+00  1.03987E+03  2.288E+00  5.530E+01  5.593E-01  7.539E-01
   1   13    8     7     2    1.4874E+02  1.9238E+00   1.4681E+02  0.000E+00  0.000E+00  0.000E+00  1.03478E+03  2.279E+00  5.526E+01  6.148E-01  1.043E+00
   1   13    7     7     3    1.4681E+02  1.7749E+00   1.4504E+02  0.000E+00  0.000E+00  0.000E+00  1.02969E+03  2.270E+00  5.521E+01  5.584E-01  1.059E+00
   1   13    6     8     1    1.5591E+02  1.1500E+00   1.5475E+02  0.000E+00  0.000E+00  0.000E+00  1.02473E+03  2.854E+00  4.138E+01  4.217E-01  9.090E-01
   1   13    5     8     2    1.5475E+02  3.8422E-01   1.5437E+02  0.000E+00  0.000E+00  0.000E+00  1.01847E+03  2.849E+00  4.131E+01  4.209E-01  3.043E-01
   1   13    4     8     3    1.5437E+02 -1.9012E+00   1.5627E+02  0.000E+00  0.000E+00  0.000E+00  1.01223E+03  2.854E+00  4.138E+01  4.217E+00 -1.503E-01
   1   13    3     8     4    1.5627E+02 -3.5355E+00   1.5981E+02  0.000E+00  0.000E+00  0.000E+00  1.00600E+03  2.873E+00  4.165E+01  4.244E+00 -2.777E-01
   1   13    2     8     5    1.5981E+02 -2.6227E+00   1.6243E+02  0.000E+00  0.000E+00  0.000E+00  9.99768E+02  2.893E+00  4.195E+01  4.275E+00 -2.045E-01
   1   13    1     8     6    1.6243E+02 -1.9708E+00   1.6440E+02  0.000E+00  0.000E+00  0.000E+00  9.94784E+02  2.909E+00  4.218E+01  2.579E+00 -2.547E-01
   1    6    8     9     1    0.0000E+00  0.0000E+00   0.0000E+00  0.000E+00  0.000E+00  0.000E+00  1.07850E+03  0.000E+00  4.000E+00  0.000E+00  1.000E+00



 UBDSV3 SAVING "     NETRECHARGE" ON UNIT 100 AT TIME STEP    15, STRESS PERIOD  12
 UBDSV3 SAVING "    NETDISCHARGE" ON UNIT 101 AT TIME STEP    15, STRESS PERIOD  12
 UBDSV3 SAVING "           GW ET" ON UNIT  61 AT TIME STEP    15, STRESS PERIOD  12
 UBDSV3 SAVING "    UZF RECHARGE" ON UNIT  61 AT TIME STEP    15, STRESS PERIOD  12
 UBDSV3 SAVING " SURFACE LEAKAGE" ON UNIT  61 AT TIME STEP    15, STRESS PERIOD  12
 UBDSV3 SAVING "       HORT+DUNN" ON UNIT  61 AT TIME STEP    15, STRESS PERIOD  12
 UBDSV3 SAVING "  STORAGE CHANGE" ON UNIT  61 AT TIME STEP    15, STRESS PERIOD  12


UNSATURATED ZONE PACKAGE VOLUMETRIC BUDGET FOR  TIME STEP    15 STRESS PERIOD   12
  ------------------------------------------------------------------------------



     CUMULATIVE VOLUMES      L**3       RATES FOR THIS TIME STEP      L**3/T
     ------------------                 ------------------------

           IN:                                      IN:
           ---                                      ---
        INFILTRATION =    43646579.2819          INFILTRATION =           0.8475

          OUT:                                     OUT:
          ----                                     ----
              UZF ET =   570602402.1700                UZF ET =           0.2900
        UZF RECHARGE =   717783352.4760          UZF RECHARGE =          23.2958

            IN - OUT = -1244739175.3641              IN - OUT =         -22.7383

          STORAGE:                                 STORAGE:
          --------                                 --------
      STORAGE CHANGE = -1244730495.7730        STORAGE CHANGE =         -22.7383

 PERCENT DISCREPANCY IS DIFFERENCE BETWEEN IN-OUT MINUS CHANGE IN STORAGE
 DIVIDED BY THE AVERAGE OF IN AND OUT TIMES 100

 PERCENT DISCREPANCY =          -0.00     PERCENT DISCREPANCY =           0.00






1
              HEAD IN LAYER   1 AT END OF TIME STEP    15 IN STRESS PERIOD   12
  -----------------------------------------------------------------------------

           1       2       3       4       5       6       7       8       9      10
 ...................................................................................
   1  1023.61 1022.81 6999.00 6999.00 6999.00 6999.00 6999.00 6999.00 6999.00 6999.00
   2  1023.97 1023.12 1022.87 6999.00 6999.00 1024.48 1024.61 1024.56 6999.00 6999.00
   3  6999.00 1023.30 1022.84 1022.71 1023.39 1024.05 1024.57 1024.49 6999.00 6999.00
   4  1023.82 1023.33 1022.70 1022.28 1022.22 1022.30 1022.95 1024.02 1023.64 6999.00
   5  1023.70 1023.08 1022.40 1021.91 1021.87 1021.93 1022.06 1022.33 1022.28 1022.14
   6  1023.53 1022.80 1022.07 1021.59 1021.58 1021.69 1021.90 1022.23 1022.68 1023.32
   7  1023.36 1022.40 1021.70 1021.25 1021.28 1021.48 1021.82 1022.05 1023.30 6999.00
   8  6999.00 1021.72 1021.17 1020.82 1020.93 1021.23 1021.62 1022.47 1024.06 6999.00
   9  6999.00 1020.52 1020.28 1020.18 1020.43 1020.89 1021.40 1022.84 1024.96 6999.00
  10  6999.00 1018.58 1018.77 1019.20 1019.80 1020.65 1021.47 1023.39 1025.93 1026.78
  11  6999.00 1014.97 1015.78 1017.63 1019.01 1020.57 1022.01 1024.74 1027.92 6999.00
  12  1002.82 1008.07 1011.60 1015.13 1018.06 1020.85 1023.29 1027.59 1031.59 6999.00
  13   995.55 1000.38 1006.83 1012.68 1017.56 1022.00 1026.51 1031.65 1034.82 6999.00
  14  6999.00 1007.50 1010.10 1014.47 1018.88 1023.25 1028.10 1033.57 1037.61 6999.00
  15  6999.00 6999.00 1014.67 1017.23 1020.47 1023.19 6999.00 6999.00 6999.00 6999.00

 HEAD WILL BE SAVED ON UNIT   62 AT END OF TIME STEP   15, STRESS PERIOD   12
1
  VOLUMETRIC BUDGET FOR ENTIRE MODEL AT END OF TIME STEP   15, STRESS PERIOD  12
  ------------------------------------------------------------------------------

     CUMULATIVE VOLUMES      L**3       RATES FOR THIS TIME STEP      L**3/T
     ------------------                 ------------------------

           IN:                                      IN:
           ---                                      ---
             STORAGE =    28242374.0000               STORAGE =       1.8726E-02
       CONSTANT HEAD =           0.0000         CONSTANT HEAD =           0.0000
               WELLS =           0.0000                 WELLS =           0.0000
     HEAD DEP BOUNDS =     8612649.0000       HEAD DEP BOUNDS =           0.2809
      STREAM LEAKAGE =   310117248.0000        STREAM LEAKAGE =           8.9292
        UZF RECHARGE =   717783232.0000          UZF RECHARGE =          23.2958
               GW ET =           0.0000                 GW ET =           0.0000
     SURFACE LEAKAGE =           0.0000       SURFACE LEAKAGE =           0.0000

            TOTAL IN =  1064755520.0000              TOTAL IN =          32.5247

          OUT:                                     OUT:
          ----                                     ----
             STORAGE =   746411392.0000               STORAGE =          22.2041
       CONSTANT HEAD =           0.0000         CONSTANT HEAD =           0.0000
               WELLS =     1016027.8750                 WELLS =           0.0000
     HEAD DEP BOUNDS =     8653676.0000       HEAD DEP BOUNDS =           0.2868
      STREAM LEAKAGE =   237614448.0000        STREAM LEAKAGE =          10.0302
        UZF RECHARGE =           0.0000          UZF RECHARGE =           0.0000
               GW ET =    70996352.0000                 GW ET =       1.7521E-10
     SURFACE LEAKAGE =           0.0000       SURFACE LEAKAGE =           0.0000

           TOTAL OUT =  1064691904.0000             TOTAL OUT =          32.5212

            IN - OUT =       63616.0000              IN - OUT =       3.5210E-03

 PERCENT DISCREPANCY =           0.01     PERCENT DISCREPANCY =           0.01






         TIME SUMMARY AT END OF TIME STEP   15 IN STRESS PERIOD   12
                    SECONDS     MINUTES      HOURS       DAYS        YEARS
                    -----------------------------------------------------------
   TIME STEP LENGTH  87600.      1460.0      24.333      1.0139     2.77588E-03
 STRESS PERIOD TIME 1.31400E+06  21900.      365.00      15.208     4.16381E-02
         TOTAL TIME 3.02220E+07 5.03700E+05  8395.0      349.79     0.95768    
1
 
 SOLVING FOR HEAD 
                                                   Max.-Head-Change                         Max.-Flux-Residual
  Residual-Control   Outer-Iter.   Inner-Iter.     Column Row Layer    Maximum-Head-Change  Column Row Layer    Maximum-Flux-Residual          L2-NORM 
          0                 1           2             8    2     1       0.5733853459E-02       2    1    1         0.2638890385E+00      0.1550777390E+01
          0                 2           2             8    2     1       0.2577367858E-02       8    2    1         0.6692903617E-01      0.3888838028E+00
          0                 3           2             8    2     1       0.1158525439E-02       8    2    1         0.3008460394E-01      0.1441337487E+00
          0                 4           2             8    2     1       0.5207557616E-03       8    2    1         0.1352300965E-01      0.6232575743E-01
          0                 5           2             8    2     1       0.2340787184E-03       8    2    1         0.6078574623E-02      0.2776462270E-01
          0                 6           1             8    2     1       0.1052177742E-03       8    2    1         0.2732306916E-02      0.1242687665E-01
          0                 7           1             8    2     1       0.4729504237E-04       8    2    1         0.1228164504E-02      0.5566222916E-02
          0                 8           1             8    2     1       0.2125893246E-04       8    2    1         0.5520557365E-03      0.2493601722E-02
          0                 9           1             8    2     1       0.9555789792E-05       8    2    1         0.2481467711E-03      0.1117175969E-02

    ------------------------------------------------
       NWT REQUIRED            9 OUTER ITERATIONS 
       AND A TOTAL OF         14 INNER ITERATIONS.
    ------------------------------------------------

 NO OUTPUT CONTROL FOR STRESS PERIOD   12   TIME STEP   16
 
 SOLVING FOR HEAD 
                                                   Max.-Head-Change                         Max.-Flux-Residual
  Residual-Control   Outer-Iter.   Inner-Iter.     Column Row Layer    Maximum-Head-Change  Column Row Layer    Maximum-Flux-Residual          L2-NORM 
          0                 1           2             8    2     1       0.5732160886E-02       2    1    1         0.2633011698E+00      0.1548853830E+01
          0                 2           2             8    2     1       0.2576603738E-02       8    2    1         0.6690926375E-01      0.3885748844E+00
          0                 3           2             8    2     1       0.1158180485E-02       8    2    1         0.3007567764E-01      0.1440147641E+00
          0                 4           2             8    2     1       0.5206000415E-03       8    2    1         0.1351898000E-01      0.6227246271E-01
          0                 5           2             8    2     1       0.2340084249E-03       8    2    1         0.6076755553E-02      0.2774069684E-01
          0                 6           1             8    2     1       0.1051860443E-03       8    2    1         0.2731485776E-02      0.1241614337E-01
          0                 7           1             8    2     1       0.4728072026E-04       8    2    1         0.1227793846E-02      0.5561408944E-02
          0                 8           1             8    2     1       0.2125246759E-04       8    2    1         0.5518884253E-03      0.2491442646E-02
          0                 9           1             8    2     1       0.9552871997E-05       8    2    1         0.2480712544E-03      0.1116208374E-02

    ------------------------------------------------
       NWT REQUIRED            9 OUTER ITERATIONS 
       AND A TOTAL OF         14 INNER ITERATIONS.
    ------------------------------------------------

 NO OUTPUT CONTROL FOR STRESS PERIOD   12   TIME STEP   17
 
 SOLVING FOR HEAD 
                                                   Max.-Head-Change                         Max.-Flux-Residual
  Residual-Control   Outer-Iter.   Inner-Iter.     Column Row Layer    Maximum-Head-Change  Column Row Layer    Maximum-Flux-Residual          L2-NORM 
          0                 1           2             8    2     1       0.5730360805E-02       2    1    1         0.2627231858E+00      0.1547210733E+01
          0                 2           2             8    2     1       0.2575791464E-02       8    2    1         0.6688823723E-01      0.3882957760E+00
          0                 3           2             8    2     1       0.1157813962E-02       8    2    1         0.3006618962E-01      0.1438986129E+00
          0                 4           2             8    2     1       0.5204346598E-03       8    2    1         0.1351469874E-01      0.6221963540E-01
          0                 5           2             8    2     1       0.2339338038E-03       8    2    1         0.6074823785E-02      0.2771692047E-01
          0                 6           1             8    2     1       0.1051523761E-03       8    2    1         0.2730614161E-02      0.1240547288E-01
          0                 7           1             8    2     1       0.4726552927E-04       8    2    1         0.1227400580E-02      0.5556622733E-02
          0                 8           1             8    2     1       0.2124561430E-04       8    2    1         0.5517110000E-03      0.2489296015E-02
          0                 9           1             8    2     1       0.9549780374E-05       8    2    1         0.2479912076E-03      0.1115244960E-02

    ------------------------------------------------
       NWT REQUIRED            9 OUTER ITERATIONS 
       AND A TOTAL OF         14 INNER ITERATIONS.
    ------------------------------------------------

 NO OUTPUT CONTROL FOR STRESS PERIOD   12   TIME STEP   18
 
 SOLVING FOR HEAD 
                                                   Max.-Head-Change                         Max.-Flux-Residual
  Residual-Control   Outer-Iter.   Inner-Iter.     Column Row Layer    Maximum-Head-Change  Column Row Layer    Maximum-Flux-Residual          L2-NORM 
          0                 1           2             8    2     1       0.5728553710E-02       6    4    1         0.2623116233E+00      0.1545765716E+01
          0                 2           2             8    2     1       0.2574976016E-02       8    2    1         0.6686712875E-01      0.3880389755E+00
          0                 3           2             8    2     1       0.1157446004E-02       8    2    1         0.3005666451E-01      0.1437851170E+00
          0                 4           2             8    2     1       0.5202686288E-03       8    2    1         0.1351040069E-01      0.6216734268E-01
          0                 5           2             8    2     1       0.2338588890E-03       8    2    1         0.6072884424E-02      0.2769331669E-01
          0                 6           1             8    2     1       0.1051185749E-03       8    2    1         0.2729739108E-02      0.1239486318E-01
          0                 7           1             8    2     1       0.4725027899E-04       8    2    1         0.1227005761E-02      0.5551857302E-02
          0                 8           1             8    2     1       0.2123873349E-04       8    2    1         0.5515328596E-03      0.2487156089E-02
          0                 9           1             8    2     1       0.9546675996E-05       8    2    1         0.2479108360E-03      0.1114284132E-02

    ------------------------------------------------
       NWT REQUIRED            9 OUTER ITERATIONS 
       AND A TOTAL OF         14 INNER ITERATIONS.
    ------------------------------------------------

 NO OUTPUT CONTROL FOR STRESS PERIOD   12   TIME STEP   19
 
 SOLVING FOR HEAD 
                                                   Max.-Head-Change                         Max.-Flux-Residual
  Residual-Control   Outer-Iter.   Inner-Iter.     Column Row Layer    Maximum-Head-Change  Column Row Layer    Maximum-Flux-Residual          L2-NORM 
          0                 1           2             8    2     1       0.5726739619E-02       6    4    1         0.2621782524E+00      0.1544359602E+01
          0                 2           2             8    2     1       0.2574157445E-02       8    2    1         0.6684593870E-01      0.3877839289E+00
          0                 3           2             8    2     1       0.1157076651E-02       8    2    1         0.3004710299E-01      0.1436732955E+00
          0                 4           2             8    2     1       0.5201019748E-03       8    2    1         0.1350608640E-01      0.6211585331E-01
          0                 5           2             8    2     1       0.2337836966E-03       8    2    1         0.6070937807E-02      0.2767004718E-01
          0                 6           1             8    2     1       0.1050846491E-03       8    2    1         0.2728860811E-02      0.1238439221E-01
          0                 7           1             8    2     1       0.4723497320E-04       8    2    1         0.1226609499E-02      0.5547150210E-02
          0                 8           1             8    2     1       0.2123182817E-04       8    2    1         0.5513540797E-03      0.2485040923E-02
          0                 9           1             8    2     1       0.9543560863E-05       8    2    1         0.2478301784E-03      0.1113333985E-02

    ------------------------------------------------
       NWT REQUIRED            9 OUTER ITERATIONS 
       AND A TOTAL OF         14 INNER ITERATIONS.
    ------------------------------------------------

 NO OUTPUT CONTROL FOR STRESS PERIOD   12   TIME STEP   20
 
 SOLVING FOR HEAD 
                                                   Max.-Head-Change                         Max.-Flux-Residual
  Residual-Control   Outer-Iter.   Inner-Iter.     Column Row Layer    Maximum-Head-Change  Column Row Layer    Maximum-Flux-Residual          L2-NORM 
          0                 1           2             8    2     1       0.5724918520E-02       6    4    1         0.2620388094E+00      0.1543085850E+01
          0                 2           2             8    2     1       0.2573335691E-02       8    2    1         0.6682466669E-01      0.3875364837E+00
          0                 3           2             8    2     1       0.1156705853E-02       8    2    1         0.3003750424E-01      0.1435598769E+00
          0                 4           2             8    2     1       0.5199346656E-03       8    2    1         0.1350175520E-01      0.6206345205E-01
          0                 5           2             8    2     1       0.2337082061E-03       8    2    1         0.6068983522E-02      0.2764641284E-01
          0                 6           1             8    2     1       0.1050505890E-03       8    2    1         0.2727979046E-02      0.1237378219E-01
          0                 7           1             8    2     1       0.4721960613E-04       8    2    1         0.1226211661E-02      0.5542390923E-02
          0                 8           1             8    2     1       0.2122489535E-04       8    2    1         0.5511745869E-03      0.2482906072E-02
          0                 9           1             8    2     1       0.9540432724E-05       8    2    1         0.2477491968E-03      0.1112376517E-02

    ------------------------------------------------
       NWT REQUIRED            9 OUTER ITERATIONS 
       AND A TOTAL OF         14 INNER ITERATIONS.
    ------------------------------------------------

 NO OUTPUT CONTROL FOR STRESS PERIOD   12   TIME STEP   21
 
 SOLVING FOR HEAD 
                                                   Max.-Head-Change                         Max.-Flux-Residual
  Residual-Control   Outer-Iter.   Inner-Iter.     Column Row Layer    Maximum-Head-Change  Column Row Layer    Maximum-Flux-Residual          L2-NORM 
          0                 1           2             8    2     1       0.5723090327E-02       6    4    1         0.2618995409E+00      0.1541884517E+01
          0                 2           2             8    2     1       0.2572510726E-02       8    2    1         0.6680331179E-01      0.3872928121E+00
          0                 3           2             8    2     1       0.1156333602E-02       8    2    1         0.3002786798E-01      0.1434466071E+00
          0                 4           2             8    2     1       0.5197666987E-03       8    2    1         0.1349740703E-01      0.6201106095E-01
          0                 5           2             8    2     1       0.2336324185E-03       8    2    1         0.6067021548E-02      0.2762277817E-01
          0                 6           1             8    2     1       0.1050163938E-03       8    2    1         0.2727093790E-02      0.1236317064E-01
          0                 7           1             8    2     1       0.4720417778E-04       8    2    1         0.1225812239E-02      0.5537630394E-02
          0                 8           1             8    2     1       0.2121793426E-04       8    2    1         0.5509943785E-03      0.2480770906E-02
          0                 9           1             8    2     1       0.9537292580E-05       8    2    1         0.2476678982E-03      0.1111418698E-02

    ------------------------------------------------
       NWT REQUIRED            9 OUTER ITERATIONS 
       AND A TOTAL OF         14 INNER ITERATIONS.
    ------------------------------------------------

 NO OUTPUT CONTROL FOR STRESS PERIOD   12   TIME STEP   22
 
 SOLVING FOR HEAD 
                                                   Max.-Head-Change                         Max.-Flux-Residual
  Residual-Control   Outer-Iter.   Inner-Iter.     Column Row Layer    Maximum-Head-Change  Column Row Layer    Maximum-Flux-Residual          L2-NORM 
          0                 1           2             8    2     1       0.5721355074E-02       6    4    1         0.2617603795E+00      0.1540528799E+01
          0                 2           2             8    2     1       0.2571727507E-02       8    2    1         0.6678304158E-01      0.3870290894E+00
          0                 3           2             8    2     1       0.1155980102E-02       8    2    1         0.3001871893E-01      0.1433327456E+00
          0                 4           2             8    2     1       0.5196071542E-03       8    2    1         0.1349327770E-01      0.6195904601E-01
          0                 5           2             8    2     1       0.2335604140E-03       8    2    1         0.6065157881E-02      0.2759935315E-01
          0                 6           1             8    2     1       0.1049838983E-03       8    2    1         0.2726252699E-02      0.1235265574E-01
          0                 7           1             8    2     1       0.4718951302E-04       8    2    1         0.1225432657E-02      0.5532913713E-02
          0                 8           1             8    2     1       0.2121131657E-04       8    2    1         0.5508230798E-03      0.2478656769E-02
          0                 9           1             8    2     1       0.9534306254E-05       8    2    1         0.2475905962E-03      0.1110470113E-02

    ------------------------------------------------
       NWT REQUIRED            9 OUTER ITERATIONS 
       AND A TOTAL OF         14 INNER ITERATIONS.
    ------------------------------------------------

 NO OUTPUT CONTROL FOR STRESS PERIOD   12   TIME STEP   23
 
 SOLVING FOR HEAD 
                                                   Max.-Head-Change                         Max.-Flux-Residual
  Residual-Control   Outer-Iter.   Inner-Iter.     Column Row Layer    Maximum-Head-Change  Column Row Layer    Maximum-Flux-Residual          L2-NORM 
          0                 1           2             8    2     1       0.5719512637E-02       6    4    1         0.2616214629E+00      0.1539236929E+01
          0                 2           2             8    2     1       0.2570896292E-02       8    2    1         0.6676152113E-01      0.3867645887E+00
          0                 3           2             8    2     1       0.1155605109E-02       8    2    1         0.3000901003E-01      0.1432191970E+00
          0                 4           2             8    2     1       0.5194379853E-03       8    2    1         0.1348889766E-01      0.6190743484E-01
          0                 5           2             8    2     1       0.2334840991E-03       8    2    1         0.6063181938E-02      0.2757610845E-01
          0                 6           1             8    2     1       0.1049494731E-03       8    2    1         0.2725361329E-02      0.1234220916E-01
          0                 7           1             8    2     1       0.4717398362E-04       8    2    1         0.1225030553E-02      0.5528220429E-02
          0                 8           1             8    2     1       0.2120431171E-04       8    2    1         0.5506416954E-03      0.2476547265E-02
          0                 9           1             8    2     1       0.9531146601E-05       8    2    1         0.2475087768E-03      0.1109523249E-02

    ------------------------------------------------
       NWT REQUIRED            9 OUTER ITERATIONS 
       AND A TOTAL OF         14 INNER ITERATIONS.
    ------------------------------------------------

 NO OUTPUT CONTROL FOR STRESS PERIOD   12   TIME STEP   24
 
 SOLVING FOR HEAD 
                                                   Max.-Head-Change                         Max.-Flux-Residual
  Residual-Control   Outer-Iter.   Inner-Iter.     Column Row Layer    Maximum-Head-Change  Column Row Layer    Maximum-Flux-Residual          L2-NORM 
          0                 1           2             8    2     1       0.5717663510E-02       6    4    1         0.2614768584E+00      0.1538053688E+01
          0                 2           2             8    2     1       0.2570061990E-02       8    2    1         0.6673992220E-01      0.3865224670E+00
          0                 3           2             8    2     1       0.1155228693E-02       8    2    1         0.2999926493E-01      0.1431096309E+00
          0                 4           2             8    2     1       0.5192681612E-03       8    2    1         0.1348450095E-01      0.6185687352E-01
          0                 5           2             8    2     1       0.2334074833E-03       8    2    1         0.6061198320E-02      0.2755324323E-01
          0                 6           1             8    2     1       0.1049149082E-03       8    2    1         0.2724466422E-02      0.1233191352E-01
          0                 7           1             8    2     1       0.4715839120E-04       8    2    1         0.1224626837E-02      0.5523589698E-02
          0                 8           1             8    2     1       0.2119727758E-04       8    2    1         0.5504595674E-03      0.2474465579E-02
          0                 9           1             8    2     1       0.9527973443E-05       8    2    1         0.2474266162E-03      0.1108587393E-02

    ------------------------------------------------
       NWT REQUIRED            9 OUTER ITERATIONS 
       AND A TOTAL OF         14 INNER ITERATIONS.
    ------------------------------------------------

 NO OUTPUT CONTROL FOR STRESS PERIOD   12   TIME STEP   25
 
 SOLVING FOR HEAD 
                                                   Max.-Head-Change                         Max.-Flux-Residual
  Residual-Control   Outer-Iter.   Inner-Iter.     Column Row Layer    Maximum-Head-Change  Column Row Layer    Maximum-Flux-Residual          L2-NORM 
          0                 1           2             8    2     1       0.5715807689E-02       6    4    1         0.2613387605E+00      0.1536767317E+01
          0                 2           2             8    2     1       0.2569224748E-02       8    2    1         0.6671824546E-01      0.3862481684E+00
          0                 3           2             8    2     1       0.1154850987E-02       8    2    1         0.2998948565E-01      0.1429940853E+00
          0                 4           2             8    2     1       0.5190977703E-03       8    2    1         0.1348008923E-01      0.6180477020E-01
          0                 5           2             8    2     1       0.2333306185E-03       8    2    1         0.6059208117E-02      0.2752983915E-01
          0                 6           1             8    2     1       0.1048802351E-03       8    2    1         0.2723568635E-02      0.1232141282E-01
          0                 7           1             8    2     1       0.4714275075E-04       8    2    1         0.1224221849E-02      0.5518879214E-02
          0                 8           1             8    2     1       0.2119022245E-04       8    2    1         0.5502768841E-03      0.2472352597E-02
          0                 9           1             8    2     1       0.9524791280E-05       8    2    1         0.2473442145E-03      0.1107639749E-02

    ------------------------------------------------
       NWT REQUIRED            9 OUTER ITERATIONS 
       AND A TOTAL OF         14 INNER ITERATIONS.
    ------------------------------------------------

 NO OUTPUT CONTROL FOR STRESS PERIOD   12   TIME STEP   26
 
 SOLVING FOR HEAD 
                                                   Max.-Head-Change                         Max.-Flux-Residual
  Residual-Control   Outer-Iter.   Inner-Iter.     Column Row Layer    Maximum-Head-Change  Column Row Layer    Maximum-Flux-Residual          L2-NORM 
          0                 1           2             8    2     1       0.5713945165E-02       6    4    1         0.2612007888E+00      0.1535439146E+01
          0                 2           2             8    2     1       0.2568384417E-02       8    2    1         0.6669649012E-01      0.3859754164E+00
          0                 3           2             8    2     1       0.1154471858E-02       8    2    1         0.2997967015E-01      0.1428799279E+00
          0                 4           2             8    2     1       0.5189267253E-03       8    2    1         0.1347566084E-01      0.6175311179E-01
          0                 5           2             8    2     1       0.2332534535E-03       8    2    1         0.6057210246E-02      0.2750660408E-01
          0                 6           1             8    2     1       0.1048454239E-03       8    2    1         0.2722667320E-02      0.1231098326E-01
          0                 7           1             8    2     1       0.4712704653E-04       8    2    1         0.1223815243E-02      0.5514199826E-02
          0                 8           1             8    2     1       0.2118313856E-04       8    2    1         0.5500934618E-03      0.2470253225E-02
          0                 9           1             8    2     1       0.9521595611E-05       8    2    1         0.2472614715E-03      0.1106697996E-02

    ------------------------------------------------
       NWT REQUIRED            9 OUTER ITERATIONS 
       AND A TOTAL OF         14 INNER ITERATIONS.
    ------------------------------------------------

 NO OUTPUT CONTROL FOR STRESS PERIOD   12   TIME STEP   27
 
 SOLVING FOR HEAD 
                                                   Max.-Head-Change                         Max.-Flux-Residual
  Residual-Control   Outer-Iter.   Inner-Iter.     Column Row Layer    Maximum-Head-Change  Column Row Layer    Maximum-Flux-Residual          L2-NORM 
          0                 1           2             8    2     1       0.5712075965E-02       6    4    1         0.2610630781E+00      0.1534391394E+01
          0                 2           2             8    2     1       0.2567541164E-02       8    2    1         0.6667465723E-01      0.3857341966E+00
          0                 3           2             8    2     1       0.1154091452E-02       8    2    1         0.2996982073E-01      0.1427673783E+00
          0                 4           2             8    2     1       0.5187551216E-03       8    2    1         0.1347121761E-01      0.6170123752E-01
          0                 5           2             8    2     1       0.2331760441E-03       8    2    1         0.6055205885E-02      0.2748322905E-01
          0                 6           1             8    2     1       0.1048105059E-03       8    2    1         0.2721763164E-02      0.1230049422E-01
          0                 7           1             8    2     1       0.4711129554E-04       8    2    1         0.1223407391E-02      0.5509495689E-02
          0                 8           1             8    2     1       0.2117603415E-04       8    2    1         0.5499094951E-03      0.2468143695E-02
          0                 9           1             8    2     1       0.9518391188E-05       8    2    1         0.2471784926E-03      0.1105752069E-02

    ------------------------------------------------
       NWT REQUIRED            9 OUTER ITERATIONS 
       AND A TOTAL OF         14 INNER ITERATIONS.
    ------------------------------------------------

 NO OUTPUT CONTROL FOR STRESS PERIOD   12   TIME STEP   28
 
 SOLVING FOR HEAD 
                                                   Max.-Head-Change                         Max.-Flux-Residual
  Residual-Control   Outer-Iter.   Inner-Iter.     Column Row Layer    Maximum-Head-Change  Column Row Layer    Maximum-Flux-Residual          L2-NORM 
          0                 1           2             8    2     1       0.5710200180E-02       6    4    1         0.2609196475E+00      0.1533222710E+01
          0                 2           2             8    2     1       0.2566694920E-02       8    2    1         0.6665274734E-01      0.3854747580E+00
          0                 3           2             8    2     1       0.1153709687E-02       8    2    1         0.2995993632E-01      0.1426551579E+00
          0                 4           2             8    2     1       0.5185829012E-03       8    2    1         0.1346675848E-01      0.6165027799E-01
          0                 5           2             8    2     1       0.2330983546E-03       8    2    1         0.6053194310E-02      0.2746028115E-01
          0                 6           1             8    2     1       0.1047754606E-03       8    2    1         0.2720855739E-02      0.1229018045E-01
          0                 7           1             8    2     1       0.4709548752E-04       8    2    1         0.1222998065E-02      0.5504862676E-02
          0                 8           1             8    2     1       0.2116890349E-04       8    2    1         0.5497248572E-03      0.2466063147E-02
          0                 9           1             8    2     1       0.9515175010E-05       8    2    1         0.2470952116E-03      0.1104817586E-02

    ------------------------------------------------
       NWT REQUIRED            9 OUTER ITERATIONS 
       AND A TOTAL OF         14 INNER ITERATIONS.
    ------------------------------------------------

 NO OUTPUT CONTROL FOR STRESS PERIOD   12   TIME STEP   29
 
 SOLVING FOR HEAD 
                                                   Max.-Head-Change                         Max.-Flux-Residual
  Residual-Control   Outer-Iter.   Inner-Iter.     Column Row Layer    Maximum-Head-Change  Column Row Layer    Maximum-Flux-Residual          L2-NORM 
          0                 1           2             8    2     1       0.5708217888E-02       6    4    1         0.2607827692E+00      0.1531495538E+01
          0                 2           2             8    2     1       0.2565800985E-02       8    2    1         0.6662959509E-01      0.3851692619E+00
          0                 3           2             8    2     1       0.1153306567E-02       8    2    1         0.2994949562E-01      0.1425413260E+00
          0                 4           2             8    2     1       0.5184011187E-03       8    2    1         0.1346205027E-01      0.6159976383E-01
          0                 5           2             8    2     1       0.2330163837E-03       8    2    1         0.6051071204E-02      0.2743755472E-01
          0                 6           1             8    2     1       0.1047384981E-03       8    2    1         0.2719898373E-02      0.1227994895E-01
          0                 7           1             8    2     1       0.4707882137E-04       8    2    1         0.1222566377E-02      0.5500258122E-02
          0                 8           1             8    2     1       0.2116138865E-04       8    2    1         0.5495302039E-03      0.2463991517E-02
          0                 9           1             8    2     1       0.9511786506E-05       8    2    1         0.2470074395E-03      0.1103886294E-02

    ------------------------------------------------
       NWT REQUIRED            9 OUTER ITERATIONS 
       AND A TOTAL OF         14 INNER ITERATIONS.
    ------------------------------------------------

 NO OUTPUT CONTROL FOR STRESS PERIOD   12   TIME STEP   30



 STREAM LISTING     PERIOD     12   STEP       30

 LAYER ROW COL. STREAM  RCH.  FLOW INTO     FLOW TO   FLOW OUT OF   OVRLND.     DIRECT     STREAM       STREAM     STREAM     STREAM   STREAMBED  STREAMBED
                SEG.NO.  NO.  STRM. RCH.    AQUIFER    STRM. RCH.    RUNOFF     PRECIP       ET          HEAD       DEPTH      WIDTH   CONDCTNC.   GRADIENT

   1    1    1     1     1    3.2178E+00  8.0495E-02   3.1373E+00  0.000E+00  0.000E+00  0.000E+00  1.09369E+03  6.461E-01  4.906E+00  2.208E-02  1.215E+00
   1    2    2     1     2    3.1373E+00  1.2360E-01   3.0137E+00  0.000E+00  0.000E+00  0.000E+00  1.08870E+03  6.388E-01  4.853E+00  3.397E-02  1.213E+00
   1    3    3     1     3    3.0137E+00  1.0437E-01   2.9093E+00  0.000E+00  0.000E+00  0.000E+00  1.08305E+03  6.305E-01  4.791E+00  2.875E-02  1.210E+00
   1    3    4     1     4    2.9093E+00  9.5243E-02   2.8141E+00  0.000E+00  0.000E+00  0.000E+00  1.07803E+03  6.230E-01  4.737E+00  2.629E-02  1.208E+00
   1    4    5     2     1    8.1410E-01  0.0000E+00   8.1410E-01  0.000E+00  0.000E+00  0.000E+00  1.07209E+03  1.547E-01  1.200E+01  0.000E+00  1.052E+00
   1    5    6     2     2    8.1410E-01  0.0000E+00   8.1410E-01  0.000E+00  0.000E+00  0.000E+00  1.06666E+03  1.547E-01  1.200E+01  0.000E+00  1.052E+00
   1    6    6     2     3    8.1410E-01  0.0000E+00   8.1410E-01  0.000E+00  0.000E+00  0.000E+00  1.06195E+03  1.547E-01  1.200E+01  0.000E+00  1.052E+00
   1    7    6     2     4    8.1410E-01  0.0000E+00   8.1410E-01  0.000E+00  0.000E+00  0.000E+00  1.05723E+03  1.547E-01  1.200E+01  0.000E+00  1.052E+00
   1    8    6     2     5    8.1410E-01  0.0000E+00   8.1410E-01  0.000E+00  0.000E+00  0.000E+00  1.05251E+03  1.547E-01  1.200E+01  0.000E+00  1.052E+00
   1    3    5     3     1    2.0000E+00  2.8252E-01   1.7175E+00  0.000E+00  0.000E+00  0.000E+00  1.07555E+03  1.909E+00  9.636E+00  7.227E-02  1.955E+00
   1    3    6     3     2    1.7175E+00  2.4905E-01   1.4684E+00  0.000E+00  0.000E+00  0.000E+00  1.07264E+03  1.727E+00  8.909E+00  6.682E-02  1.864E+00
   1    3    7     3     3    1.4684E+00  1.9718E-01   1.2712E+00  0.000E+00  0.000E+00  0.000E+00  1.06987E+03  1.555E+00  8.218E+00  5.547E-02  1.777E+00
   1    4    8     3     4    1.2712E+00  2.2567E-01   1.0456E+00  0.000E+00  0.000E+00  0.000E+00  1.06682E+03  1.364E+00  7.455E+00  6.709E-02  1.682E+00
   1    5    8     3     5    1.0456E+00  1.5790E-01   8.8768E-01  0.000E+00  0.000E+00  0.000E+00  1.06362E+03  1.164E+00  6.655E+00  4.991E-02  1.582E+00
   1    6    8     3     6    8.8768E-01  5.5980E-02   8.3170E-01  0.000E+00  0.000E+00  0.000E+00  1.06158E+03  1.036E+00  6.145E+00  1.844E-02  1.518E+00
   1    5   10     4     1    1.0000E+01  0.0000E+00   1.0000E+01  0.000E+00  0.000E+00  0.000E+00  1.07837E+03  6.385E-01  1.000E+01  0.000E+00  1.213E+00
   1    5    9     4     2    1.0000E+01  0.0000E+00   1.0000E+01  0.000E+00  0.000E+00  0.000E+00  1.07155E+03  6.385E-01  1.000E+01  0.000E+00  1.213E+00
   1    6    8     4     3    1.0000E+01  0.0000E+00   1.0000E+01  0.000E+00  0.000E+00  0.000E+00  1.06382E+03  6.385E-01  1.000E+01  0.000E+00  1.213E+00
   1    6    8     5     1    1.0832E+01  2.3262E-01   1.0599E+01  0.000E+00  0.000E+00  0.000E+00  1.05869E+03  6.881E-01  1.577E+01  6.307E-02  1.229E+00
   1    7    7     5     2    1.0599E+01  2.8607E-01   1.0313E+01  0.000E+00  0.000E+00  0.000E+00  1.05418E+03  6.822E-01  1.554E+01  7.769E-02  1.227E+00
   1    8    7     5     3    1.0313E+01  1.9716E-01   1.0116E+01  0.000E+00  0.000E+00  0.000E+00  1.04993E+03  6.766E-01  1.532E+01  5.363E-02  1.226E+00
   1    8    6     5     4    1.0116E+01  1.3929E-01   9.9766E+00  0.000E+00  0.000E+00  0.000E+00  1.04692E+03  6.727E-01  1.517E+01  3.792E-02  1.224E+00
   1    9    6     6     1    1.0791E+01  0.0000E+00   1.0791E+01  0.000E+00  0.000E+00  0.000E+00  1.04346E+03  7.376E-01  1.200E+01  0.000E+00  1.246E+00
   1   10    7     6     2    1.0791E+01  0.0000E+00   1.0791E+01  0.000E+00  0.000E+00  0.000E+00  1.03892E+03  7.376E-01  1.200E+01  0.000E+00  1.246E+00
   1   11    7     6     3    1.0791E+01  0.0000E+00   1.0791E+01  0.000E+00  0.000E+00  0.000E+00  1.03437E+03  7.376E-01  1.200E+01  0.000E+00  1.246E+00
   1   12    7     6     4    1.0791E+01  0.0000E+00   1.0791E+01  0.000E+00  0.000E+00  0.000E+00  1.02983E+03  7.376E-01  1.200E+01  0.000E+00  1.246E+00
   1   13    7     6     5    1.0791E+01  0.0000E+00   1.0791E+01  0.000E+00  0.000E+00  0.000E+00  1.02665E+03  7.376E-01  1.200E+01  0.000E+00  3.921E-02
   1   14    9     7     1    1.5000E+02  1.2642E+00   1.4874E+02  0.000E+00  0.000E+00  0.000E+00  1.03987E+03  2.288E+00  5.530E+01  5.593E-01  7.535E-01
   1   13    8     7     2    1.4874E+02  1.9211E+00   1.4681E+02  0.000E+00  0.000E+00  0.000E+00  1.03478E+03  2.279E+00  5.526E+01  6.148E-01  1.042E+00
   1   13    7     7     3    1.4681E+02  1.7645E+00   1.4505E+02  0.000E+00  0.000E+00  0.000E+00  1.02969E+03  2.270E+00  5.521E+01  5.584E-01  1.053E+00
   1   13    6     8     1    1.5584E+02  1.1310E+00   1.5471E+02  0.000E+00  0.000E+00  0.000E+00  1.02473E+03  2.854E+00  4.138E+01  4.216E-01  8.941E-01
   1   13    5     8     2    1.5471E+02  3.6313E-01   1.5435E+02  0.000E+00  0.000E+00  0.000E+00  1.01847E+03  2.848E+00  4.130E+01  4.209E-01  2.876E-01
   1   13    4     8     3    1.5435E+02 -1.9579E+00   1.5630E+02  0.000E+00  0.000E+00  0.000E+00  1.01223E+03  2.854E+00  4.138E+01  4.217E+00 -1.548E-01
   1   13    3     8     4    1.5630E+02 -3.5655E+00   1.5987E+02  0.000E+00  0.000E+00  0.000E+00  1.00600E+03  2.873E+00  4.166E+01  4.245E+00 -2.800E-01
   1   13    2     8     5    1.5987E+02 -2.6487E+00   1.6252E+02  0.000E+00  0.000E+00  0.000E+00  9.99769E+02  2.894E+00  4.196E+01  4.276E+00 -2.065E-01
   1   13    1     8     6    1.6252E+02 -2.0085E+00   1.6453E+02  0.000E+00  0.000E+00  0.000E+00  9.94784E+02  2.910E+00  4.219E+01  2.579E+00 -2.596E-01
   1    6    8     9     1    0.0000E+00  0.0000E+00   0.0000E+00  0.000E+00  0.000E+00  0.000E+00  1.07850E+03  0.000E+00  4.000E+00  0.000E+00  1.000E+00





UNSATURATED ZONE PACKAGE VOLUMETRIC BUDGET FOR  TIME STEP    30 STRESS PERIOD   12
  ------------------------------------------------------------------------------



     CUMULATIVE VOLUMES      L**3       RATES FOR THIS TIME STEP      L**3/T
     ------------------                 ------------------------

           IN:                                      IN:
           ---                                      ---
        INFILTRATION =    44760194.2819          INFILTRATION =           0.8475

          OUT:                                     OUT:
          ----                                     ----
              UZF ET =   570983462.1700                UZF ET =           0.2900
        UZF RECHARGE =   748287564.5112          UZF RECHARGE =          23.1429

            IN - OUT = -1274510832.3993              IN - OUT =         -22.5854

          STORAGE:                                 STORAGE:
          --------                                 --------
      STORAGE CHANGE = -1274502152.8509        STORAGE CHANGE =         -22.5854

 PERCENT DISCREPANCY IS DIFFERENCE BETWEEN IN-OUT MINUS CHANGE IN STORAGE
 DIVIDED BY THE AVERAGE OF IN AND OUT TIMES 100

 PERCENT DISCREPANCY =          -0.00     PERCENT DISCREPANCY =           0.00






1
  VOLUMETRIC BUDGET FOR ENTIRE MODEL AT END OF TIME STEP   30, STRESS PERIOD  12
  ------------------------------------------------------------------------------

     CUMULATIVE VOLUMES      L**3       RATES FOR THIS TIME STEP      L**3/T
     ------------------                 ------------------------

           IN:                                      IN:
           ---                                      ---
             STORAGE =    28268266.0000               STORAGE =       2.3072E-02
       CONSTANT HEAD =           0.0000         CONSTANT HEAD =           0.0000
               WELLS =           0.0000                 WELLS =           0.0000
     HEAD DEP BOUNDS =     8981762.0000       HEAD DEP BOUNDS =           0.2809
      STREAM LEAKAGE =   321811424.0000        STREAM LEAKAGE =           8.8711
        UZF RECHARGE =   748287424.0000          UZF RECHARGE =          23.1429
               GW ET =           0.0000                 GW ET =           0.0000
     SURFACE LEAKAGE =           0.0000       SURFACE LEAKAGE =           0.0000

            TOTAL IN =  1107348864.0000              TOTAL IN =          32.3180

          OUT:                                     OUT:
          ----                                     ----
             STORAGE =   775333184.0000               STORAGE =          21.8465
       CONSTANT HEAD =           0.0000         CONSTANT HEAD =           0.0000
               WELLS =     1016027.8750                 WELLS =           0.0000
     HEAD DEP BOUNDS =     9031010.0000       HEAD DEP BOUNDS =           0.2874
      STREAM LEAKAGE =   250904112.0000        STREAM LEAKAGE =          10.1806
        UZF RECHARGE =           0.0000          UZF RECHARGE =           0.0000
               GW ET =    70996352.0000                 GW ET =       1.7374E-10
     SURFACE LEAKAGE =           0.0000       SURFACE LEAKAGE =           0.0000

           TOTAL OUT =  1107280640.0000             TOTAL OUT =          32.3145

            IN - OUT =       68224.0000              IN - OUT =       3.4676E-03

 PERCENT DISCREPANCY =           0.01     PERCENT DISCREPANCY =           0.01






         TIME SUMMARY AT END OF TIME STEP   30 IN STRESS PERIOD   12
                    SECONDS     MINUTES      HOURS       DAYS        YEARS
                    -----------------------------------------------------------
   TIME STEP LENGTH  87600.      1460.0      24.333      1.0139     2.77588E-03
 STRESS PERIOD TIME 2.62800E+06  43800.      730.00      30.417     8.32763E-02
         TOTAL TIME 3.15360E+07 5.25600E+05  8760.0      365.00     0.99932    
1
1
                            STRESS PERIOD NO.   13, LENGTH =   2628000.    
                            -----------------------------------------------

                              NUMBER OF TIME STEPS =    30

                               MULTIPLIER FOR DELT =     1.000

                            INITIAL TIME STEP SIZE =   87600.00    

 WELL NO.  LAYER   ROW   COL   STRESS RATE         
 --------------------------------------------------
      1      1      6      4       0.000    
      2      1      6      7       0.000    
      3      1      7      4       0.000    
      4      1      7      5       0.000    
      5      1      8      4       0.000    
      6      1      8      5       0.000    
      7      1      9      4       0.000    
      8      1      9      5       0.000    
      9      1     10      4       0.000    
     10      1     10      5       0.000    

     10 WELLS

 REUSING NON-PARAMETER GHB CELLS FROM LAST STRESS PERIOD

      2 GHB CELLS

 REUSING STREAM SEGMENT DATA FROM LAST STRESS PERIOD



            AREAL INFILTRATION RATE
 READING ON UNIT   19 WITH FORMAT: (10F4.0)            

            1           2           3           4           5           6           7           8           9          10
 ........................................................................................................................
   1   1.0000E-10  2.0000E-10   0.000       0.000       0.000       0.000       0.000       0.000       0.000       0.000    
   2   2.0000E-10  1.0000E-10  2.0000E-10   0.000       0.000      8.0000E-10  8.0000E-10  5.0000E-10   0.000       0.000    
   3    0.000      5.0000E-10  1.0000E-10  1.0000E-10  8.0000E-10  8.0000E-10  5.0000E-10  5.0000E-10   0.000       0.000    
   4   8.0000E-10  5.0000E-10  1.0000E-10  1.0000E-10  1.0000E-10  1.0000E-10  1.0000E-10  1.0000E-10  2.0000E-10   0.000    
   5   8.0000E-10  5.0000E-10  1.0000E-10  1.0000E-10  1.0000E-10  1.0000E-10  1.0000E-10  1.0000E-10  1.0000E-10  1.0000E-10
   6   8.0000E-10  5.0000E-10  5.0000E-10  2.0000E-10  2.0000E-10  1.0000E-10  1.0000E-10  1.0000E-10  1.0000E-10  5.0000E-10
   7   8.0000E-10  5.0000E-10  5.0000E-10  2.0000E-10  2.0000E-10  1.0000E-10  1.0000E-10  2.0000E-10  2.0000E-10   0.000    
   8    0.000      5.0000E-10  5.0000E-10  2.0000E-10  2.0000E-10  1.0000E-10  1.0000E-10  2.0000E-10  5.0000E-10   0.000    
   9    0.000      5.0000E-10  5.0000E-10  2.0000E-10  2.0000E-10  1.0000E-10  1.0000E-10  2.0000E-10  5.0000E-10   0.000    
  10    0.000      5.0000E-10  5.0000E-10  2.0000E-10  2.0000E-10  1.0000E-10  1.0000E-10  2.0000E-10  5.0000E-10  8.0000E-10
  11    0.000      1.0000E-10  1.0000E-10  1.0000E-10  1.0000E-10  1.0000E-10  1.0000E-10  2.0000E-10  5.0000E-10   0.000    
  12   1.0000E-10  1.0000E-10  1.0000E-10  1.0000E-10  1.0000E-10  1.0000E-10  1.0000E-10  1.0000E-10  2.0000E-10   0.000    
  13   1.0000E-10  1.0000E-10  2.0000E-10  2.0000E-10  2.0000E-10  2.0000E-10  2.0000E-10  1.0000E-10  1.0000E-10   0.000    
  14    0.000      2.0000E-10  5.0000E-10  5.0000E-10  5.0000E-10  5.0000E-10  5.0000E-10  2.0000E-10  1.0000E-10   0.000    
  15    0.000       0.000      8.0000E-10  8.0000E-10  8.0000E-10  8.0000E-10   0.000       0.000       0.000       0.000    

                  ET RATE =  1.000000E-10

 USING ET EXTINCTION DEPTH FROM PREVIOUS STRESS PERIOD. CURRENT PERIOD IS:      13

 USING EXTINCTION WATER CONTENT FROM PREVIOUS STRESS PERIOD. CURRENT PERIOD IS:      13
 
 SOLVING FOR HEAD 
                                                   Max.-Head-Change                         Max.-Flux-Residual
  Residual-Control   Outer-Iter.   Inner-Iter.     Column Row Layer    Maximum-Head-Change  Column Row Layer    Maximum-Flux-Residual          L2-NORM 
          0                 1           2             8    2     1       0.5706329794E-02       6    4    1         0.2606401162E+00      0.1529490176E+01
          0                 2           2             8    2     1       0.2564949256E-02       8    2    1         0.6660754174E-01      0.3848241272E+00
          0                 3           2             8    2     1       0.1152922358E-02       8    2    1         0.2993954729E-01      0.1424206878E+00
          0                 4           2             8    2     1       0.5182278095E-03       8    2    1         0.1345756268E-01      0.6154735828E-01
          0                 5           2             8    2     1       0.2329382092E-03       8    2    1         0.6049046945E-02      0.2741415142E-01
          0                 6           1             8    2     1       0.1047032375E-03       8    2    1         0.2718985302E-02      0.1226945924E-01
          0                 7           1             8    2     1       0.4706291706E-04       8    2    1         0.1222154529E-02      0.5495554336E-02
          0                 8           1             8    2     1       0.2115421522E-04       8    2    1         0.5493444437E-03      0.2461882330E-02
          0                 9           1             8    2     1       0.9508551570E-05       8    2    1         0.2469236600E-03      0.1102940361E-02

    ------------------------------------------------
       NWT REQUIRED            9 OUTER ITERATIONS 
       AND A TOTAL OF         14 INNER ITERATIONS.
    ------------------------------------------------

 NO OUTPUT CONTROL FOR STRESS PERIOD   13   TIME STEP    1
 
 SOLVING FOR HEAD 
                                                   Max.-Head-Change                         Max.-Flux-Residual
  Residual-Control   Outer-Iter.   Inner-Iter.     Column Row Layer    Maximum-Head-Change  Column Row Layer    Maximum-Flux-Residual          L2-NORM 
          0                 1           2             8    2     1       0.5704435314E-02       6    4    1         0.2605040584E+00      0.1528547193E+01
          0                 2           2             8    2     1       0.2564094680E-02       8    2    1         0.6658541395E-01      0.3845812108E+00
          0                 3           2             8    2     1       0.1152536880E-02       8    2    1         0.2992956578E-01      0.1423083545E+00
          0                 4           2             8    2     1       0.5180539341E-03       8    2    1         0.1345306028E-01      0.6149582076E-01
          0                 5           2             8    2     1       0.2328597824E-03       8    2    1         0.6047016085E-02      0.2739093362E-01
          0                 6           1             8    2     1       0.1046678635E-03       8    2    1         0.2718069276E-02      0.1225903692E-01
          0                 7           1             8    2     1       0.4704696223E-04       8    2    1         0.1221741364E-02      0.5490878757E-02
          0                 8           1             8    2     1       0.2114701952E-04       8    2    1         0.5491580944E-03      0.2459784877E-02
          0                 9           1             8    2     1       0.9505305879E-05       8    2    1         0.2468396102E-03      0.1101999417E-02

    ------------------------------------------------
       NWT REQUIRED            9 OUTER ITERATIONS 
       AND A TOTAL OF         14 INNER ITERATIONS.
    ------------------------------------------------

 NO OUTPUT CONTROL FOR STRESS PERIOD   13   TIME STEP    2
 
 SOLVING FOR HEAD 
                                                   Max.-Head-Change                         Max.-Flux-Residual
  Residual-Control   Outer-Iter.   Inner-Iter.     Column Row Layer    Maximum-Head-Change  Column Row Layer    Maximum-Flux-Residual          L2-NORM 
          0                 1           2             8    2     1       0.5702534647E-02       6    4    1         0.2603621725E+00      0.1527730337E+01
          0                 2           2             8    2     1       0.2563237406E-02       8    2    1         0.6656321435E-01      0.3843519430E+00
          0                 3           2             8    2     1       0.1152150226E-02       8    2    1         0.2991955294E-01      0.1421967508E+00
          0                 4           2             8    2     1       0.5178795471E-03       8    2    1         0.1344854424E-01      0.6144428851E-01
          0                 5           2             8    2     1       0.2327811328E-03       8    2    1         0.6044979290E-02      0.2736772221E-01
          0                 6           1             8    2     1       0.1046323933E-03       8    2    1         0.2717150681E-02      0.1224862556E-01
          0                 7           1             8    2     1       0.4703096613E-04       8    2    1         0.1221327088E-02      0.5486211217E-02
          0                 8           1             8    2     1       0.2113980532E-04       8    2    1         0.5489712622E-03      0.2457692679E-02
          0                 9           1             8    2     1       0.9502052934E-05       8    2    1         0.2467553571E-03      0.1101061021E-02

    ------------------------------------------------
       NWT REQUIRED            9 OUTER ITERATIONS 
       AND A TOTAL OF         14 INNER ITERATIONS.
    ------------------------------------------------

 NO OUTPUT CONTROL FOR STRESS PERIOD   13   TIME STEP    3
 
 SOLVING FOR HEAD 
                                                   Max.-Head-Change                         Max.-Flux-Residual
  Residual-Control   Outer-Iter.   Inner-Iter.     Column Row Layer    Maximum-Head-Change  Column Row Layer    Maximum-Flux-Residual          L2-NORM 
          0                 1           2             8    2     1       0.5700627893E-02       6    4    1         0.2602270315E+00      0.1526823360E+01
          0                 2           2             8    2     1       0.2562377360E-02       8    2    1         0.6654094352E-01      0.3841072578E+00
          0                 3           2             8    2     1       0.1151762310E-02       8    2    1         0.2990950768E-01      0.1420840159E+00
          0                 4           2             8    2     1       0.5177045855E-03       8    2    1         0.1344401344E-01      0.6139278887E-01
          0                 5           2             8    2     1       0.2327022220E-03       8    2    1         0.6042935774E-02      0.2734454257E-01
          0                 6           1             8    2     1       0.1045968040E-03       8    2    1         0.2716229025E-02      0.1223821984E-01
          0                 7           1             8    2     1       0.4701491525E-04       8    2    1         0.1220911416E-02      0.5481542039E-02
          0                 8           1             8    2     1       0.2113256710E-04       8    2    1         0.5487837985E-03      0.2455597551E-02
          0                 9           1             8    2     1       0.9498787985E-05       8    2    1         0.2466708098E-03      0.1100121150E-02

    ------------------------------------------------
       NWT REQUIRED            9 OUTER ITERATIONS 
       AND A TOTAL OF         14 INNER ITERATIONS.
    ------------------------------------------------

 NO OUTPUT CONTROL FOR STRESS PERIOD   13   TIME STEP    4
 
 SOLVING FOR HEAD 
                                                   Max.-Head-Change                         Max.-Flux-Residual
  Residual-Control   Outer-Iter.   Inner-Iter.     Column Row Layer    Maximum-Head-Change  Column Row Layer    Maximum-Flux-Residual          L2-NORM 
          0                 1           2             8    2     1       0.5698714854E-02       6    4    1         0.2600861086E+00      0.1525993078E+01
          0                 2           2             8    2     1       0.2561514413E-02       8    2    1         0.6651859896E-01      0.3838830201E+00
          0                 3           2             8    2     1       0.1151373056E-02       8    2    1         0.2989942839E-01      0.1419783500E+00
          0                 4           2             8    2     1       0.5175290080E-03       8    2    1         0.1343946695E-01      0.6134395641E-01
          0                 5           2             8    2     1       0.2326230278E-03       8    2    1         0.6040885033E-02      0.2732240555E-01
          0                 6           1             8    2     1       0.1045610844E-03       8    2    1         0.2715304038E-02      0.1222822805E-01
          0                 7           1             8    2     1       0.4699880460E-04       8    2    1         0.1220494213E-02      0.5477038011E-02
          0                 8           1             8    2     1       0.2112530088E-04       8    2    1         0.5485956302E-03      0.2453568832E-02
          0                 9           1             8    2     1       0.9495511030E-05       8    2    1         0.2465859452E-03      0.1099208207E-02

    ------------------------------------------------
       NWT REQUIRED            9 OUTER ITERATIONS 
       AND A TOTAL OF         14 INNER ITERATIONS.
    ------------------------------------------------

 NO OUTPUT CONTROL FOR STRESS PERIOD   13   TIME STEP    5
 
 SOLVING FOR HEAD 
                                                   Max.-Head-Change                         Max.-Flux-Residual
  Residual-Control   Outer-Iter.   Inner-Iter.     Column Row Layer    Maximum-Head-Change  Column Row Layer    Maximum-Flux-Residual          L2-NORM 
          0                 1           2             8    2     1       0.5696695529E-02       6    4    1         0.2599457441E+00      0.1525067088E+01
          0                 2           2             8    2     1       0.2560603920E-02       8    2    1         0.6649501486E-01      0.3836359393E+00
          0                 3           2             8    2     1       0.1150962533E-02       8    2    1         0.2988879460E-01      0.1418666680E+00
          0                 4           2             8    2     1       0.5173439151E-03       8    2    1         0.1343467241E-01      0.6129304968E-01
          0                 5           2             8    2     1       0.2325395770E-03       8    2    1         0.6038723328E-02      0.2729949804E-01
          0                 6           1             8    2     1       0.1045234604E-03       8    2    1         0.2714329416E-02      0.1221794720E-01
          0                 7           1             8    2     1       0.4698184257E-04       8    2    1         0.1220054807E-02      0.5472426377E-02
          0                 8           1             8    2     1       0.2111765348E-04       8    2    1         0.5483975244E-03      0.2451500232E-02
          0                 9           1             8    2     1       0.9492063499E-05       8    2    1         0.2464966353E-03      0.1098280437E-02

    ------------------------------------------------
       NWT REQUIRED            9 OUTER ITERATIONS 
       AND A TOTAL OF         14 INNER ITERATIONS.
    ------------------------------------------------

 NO OUTPUT CONTROL FOR STRESS PERIOD   13   TIME STEP    6
 
 SOLVING FOR HEAD 
                                                   Max.-Head-Change                         Max.-Flux-Residual
  Residual-Control   Outer-Iter.   Inner-Iter.     Column Row Layer    Maximum-Head-Change  Column Row Layer    Maximum-Flux-Residual          L2-NORM 
          0                 1           2             8    2     1       0.5694770889E-02       6    4    1         0.2598059733E+00      0.1524144869E+01
          0                 2           2             8    2     1       0.2559735863E-02       8    2    1         0.6647253540E-01      0.3833831150E+00
          0                 3           2             8    2     1       0.1150571030E-02       8    2    1         0.2987865590E-01      0.1417552102E+00
          0                 4           2             8    2     1       0.5171673469E-03       8    2    1         0.1343009975E-01      0.6124240797E-01
          0                 5           2             8    2     1       0.2324599464E-03       8    2    1         0.6036661064E-02      0.2727670981E-01
          0                 6           1             8    2     1       0.1044875487E-03       8    2    1         0.2713399361E-02      0.1220771784E-01
          0                 7           1             8    2     1       0.4696564712E-04       8    2    1         0.1219635374E-02      0.5467836868E-02
          0                 8           1             8    2     1       0.2111035074E-04       8    2    1         0.5482083843E-03      0.2449441406E-02
          0                 9           1             8    2     1       0.9488770037E-05       8    2    1         0.2464113403E-03      0.1097356745E-02

    ------------------------------------------------
       NWT REQUIRED            9 OUTER ITERATIONS 
       AND A TOTAL OF         14 INNER ITERATIONS.
    ------------------------------------------------

 NO OUTPUT CONTROL FOR STRESS PERIOD   13   TIME STEP    7
 
 SOLVING FOR HEAD 
                                                   Max.-Head-Change                         Max.-Flux-Residual
  Residual-Control   Outer-Iter.   Inner-Iter.     Column Row Layer    Maximum-Head-Change  Column Row Layer    Maximum-Flux-Residual          L2-NORM 
          0                 1           2             8    2     1       0.5692840369E-02       6    4    1         0.2596727319E+00      0.1523097368E+01
          0                 2           2             8    2     1       0.2558865232E-02       8    2    1         0.6644998762E-01      0.3831374709E+00
          0                 3           2             8    2     1       0.1150178399E-02       8    2    1         0.2986848728E-01      0.1416442653E+00
          0                 4           2             8    2     1       0.5169902861E-03       8    2    1         0.1342551401E-01      0.6119164307E-01
          0                 5           2             8    2     1       0.2323801010E-03       8    2    1         0.6034593087E-02      0.2725387058E-01
          0                 6           1             8    2     1       0.1044515432E-03       8    2    1         0.2712466809E-02      0.1219747562E-01
          0                 7           1             8    2     1       0.4694941117E-04       8    2    1         0.1219214851E-02      0.5463245397E-02
          0                 8           1             8    2     1       0.2110302974E-04       8    2    1         0.5480187572E-03      0.2447382838E-02
          0                 9           1             8    2     1       0.9485469072E-05       8    2    1         0.2463258316E-03      0.1096433629E-02

    ------------------------------------------------
       NWT REQUIRED            9 OUTER ITERATIONS 
       AND A TOTAL OF         14 INNER ITERATIONS.
    ------------------------------------------------

 NO OUTPUT CONTROL FOR STRESS PERIOD   13   TIME STEP    8
 
 SOLVING FOR HEAD 
                                                   Max.-Head-Change                         Max.-Flux-Residual
  Residual-Control   Outer-Iter.   Inner-Iter.     Column Row Layer    Maximum-Head-Change  Column Row Layer    Maximum-Flux-Residual          L2-NORM 
          0                 1           2             8    2     1       0.5690803803E-02       6    4    1         0.2595339066E+00      0.1522308430E+01
          0                 2           2             8    2     1       0.2557946957E-02       8    2    1         0.6642620212E-01      0.3828997104E+00
          0                 3           2             8    2     1       0.1149764365E-02       8    2    1         0.2985776260E-01      0.1415324511E+00
          0                 4           2             8    2     1       0.5168036087E-03       8    2    1         0.1342067845E-01      0.6114056357E-01
          0                 5           2             8    2     1       0.2322959348E-03       8    2    1         0.6032412871E-02      0.2723090853E-01
          0                 6           1             8    2     1       0.1044135966E-03       8    2    1         0.2711483835E-02      0.1218717888E-01
          0                 7           1             8    2     1       0.4693230357E-04       8    2    1         0.1218771678E-02      0.5458628913E-02
          0                 8           1             8    2     1       0.2109531657E-04       8    2    1         0.5478189531E-03      0.2445312804E-02
          0                 9           1             8    2     1       0.9481992028E-05       8    2    1         0.2462357581E-03      0.1095505688E-02

    ------------------------------------------------
       NWT REQUIRED            9 OUTER ITERATIONS 
       AND A TOTAL OF         14 INNER ITERATIONS.
    ------------------------------------------------

 NO OUTPUT CONTROL FOR STRESS PERIOD   13   TIME STEP    9
 
 SOLVING FOR HEAD 
                                                   Max.-Head-Change                         Max.-Flux-Residual
  Residual-Control   Outer-Iter.   Inner-Iter.     Column Row Layer    Maximum-Head-Change  Column Row Layer    Maximum-Flux-Residual          L2-NORM 
          0                 1           2             8    2     1       0.5688861964E-02       6    4    1         0.2593955838E+00      0.1521542032E+01
          0                 2           2             8    2     1       0.2557071183E-02       8    2    1         0.6640352196E-01      0.3826773829E+00
          0                 3           2             8    2     1       0.1149369399E-02       8    2    1         0.2984753385E-01      0.1414273641E+00
          0                 4           2             8    2     1       0.5166254874E-03       8    2    1         0.1341606540E-01      0.6109204031E-01
          0                 5           2             8    2     1       0.2322156077E-03       8    2    1         0.6030332485E-02      0.2720891269E-01
          0                 6           1             8    2     1       0.1043773726E-03       8    2    1         0.2710545650E-02      0.1217725100E-01
          0                 7           1             8    2     1       0.4691596832E-04       8    2    1         0.1218348597E-02      0.5454154704E-02
          0                 8           1             8    2     1       0.2108795055E-04       8    2    1         0.5476281665E-03      0.2443298154E-02
          0                 9           1             8    2     1       0.9478670553E-05       8    2    1         0.2461497238E-03      0.1094599408E-02

    ------------------------------------------------
       NWT REQUIRED            9 OUTER ITERATIONS 
       AND A TOTAL OF         14 INNER ITERATIONS.
    ------------------------------------------------

 NO OUTPUT CONTROL FOR STRESS PERIOD   13   TIME STEP   10
 
 SOLVING FOR HEAD 
                                                   Max.-Head-Change                         Max.-Flux-Residual
  Residual-Control   Outer-Iter.   Inner-Iter.     Column Row Layer    Maximum-Head-Change  Column Row Layer    Maximum-Flux-Residual          L2-NORM 
          0                 1           2             8    2     1       0.5686914244E-02       6    4    1         0.2592577525E+00      0.1520684209E+01
          0                 2           2             8    2     1       0.2556192792E-02       8    2    1         0.6638077328E-01      0.3824392407E+00
          0                 3           2             8    2     1       0.1148973267E-02       8    2    1         0.2983727458E-01      0.1413194348E+00
          0                 4           2             8    2     1       0.5164468471E-03       8    2    1         0.1341143877E-01      0.6104277860E-01
          0                 5           2             8    2     1       0.2321350497E-03       8    2    1         0.6028246062E-02      0.2718670716E-01
          0                 6           1             8    2     1       0.1043410459E-03       8    2    1         0.2709604783E-02      0.1216726936E-01
          0                 7           1             8    2     1       0.4689958780E-04       8    2    1         0.1217924323E-02      0.5449670951E-02
          0                 8           1             8    2     1       0.2108056402E-04       8    2    1         0.5474368494E-03      0.2441284566E-02
          0                 9           1             8    2     1       0.9475340075E-05       8    2    1         0.2460634566E-03      0.1093694923E-02

    ------------------------------------------------
       NWT REQUIRED            9 OUTER ITERATIONS 
       AND A TOTAL OF         14 INNER ITERATIONS.
    ------------------------------------------------

 NO OUTPUT CONTROL FOR STRESS PERIOD   13   TIME STEP   11
 
 SOLVING FOR HEAD 
                                                   Max.-Head-Change                         Max.-Flux-Residual
  Residual-Control   Outer-Iter.   Inner-Iter.     Column Row Layer    Maximum-Head-Change  Column Row Layer    Maximum-Flux-Residual          L2-NORM 
          0                 1           2             8    2     1       0.5684860551E-02       6    4    1         0.2591205492E+00      0.1519961019E+01
          0                 2           2             8    2     1       0.2555266892E-02       8    2    1         0.6635678821E-01      0.3822156849E+00
          0                 3           2             8    2     1       0.1148555839E-02       8    2    1         0.2982646106E-01      0.1412108515E+00
          0                 4           2             8    2     1       0.5162586593E-03       8    2    1         0.1340656366E-01      0.6099269287E-01
          0                 5           2             8    2     1       0.2320502115E-03       8    2    1         0.6026048242E-02      0.2716412666E-01
          0                 6           1             8    2     1       0.1043028002E-03       8    2    1         0.2708613972E-02      0.1215713123E-01
          0                 7           1             8    2     1       0.4688234664E-04       8    2    1         0.1217477658E-02      0.5445122168E-02
          0                 8           1             8    2     1       0.2107279182E-04       8    2    1         0.5472354933E-03      0.2439243956E-02
          0                 9           1             8    2     1       0.9471836269E-05       8    2    1         0.2459726870E-03      0.1092779423E-02

    ------------------------------------------------
       NWT REQUIRED            9 OUTER ITERATIONS 
       AND A TOTAL OF         14 INNER ITERATIONS.
    ------------------------------------------------

 NO OUTPUT CONTROL FOR STRESS PERIOD   13   TIME STEP   12
 
 SOLVING FOR HEAD 
                                                   Max.-Head-Change                         Max.-Flux-Residual
  Residual-Control   Outer-Iter.   Inner-Iter.     Column Row Layer    Maximum-Head-Change  Column Row Layer    Maximum-Flux-Residual          L2-NORM 
          0                 1           2             8    2     1       0.5682901922E-02       6    4    1         0.2589840872E+00      0.1519337988E+01
          0                 2           2             8    2     1       0.2554383644E-02       8    2    1         0.6633391242E-01      0.3820020630E+00
          0                 3           2             8    2     1       0.1148157545E-02       8    2    1         0.2981614521E-01      0.1411038737E+00
          0                 4           2             8    2     1       0.5160790558E-03       8    2    1         0.1340191183E-01      0.6094317050E-01
          0                 5           2             8    2     1       0.2319692248E-03       8    2    1         0.6023950597E-02      0.2714178837E-01
          0                 6           1             8    2     1       0.1042662822E-03       8    2    1         0.2707668100E-02      0.1214710057E-01
          0                 7           1             8    2     1       0.4686588058E-04       8    2    1         0.1217051157E-02      0.5440621265E-02
          0                 8           1             8    2     1       0.2106536752E-04       8    2    1         0.5470431842E-03      0.2437226886E-02
          0                 9           1             8    2     1       0.9468489033E-05       8    2    1         0.2458859781E-03      0.1091873674E-02

    ------------------------------------------------
       NWT REQUIRED            9 OUTER ITERATIONS 
       AND A TOTAL OF         14 INNER ITERATIONS.
    ------------------------------------------------

 NO OUTPUT CONTROL FOR STRESS PERIOD   13   TIME STEP   13
 
 SOLVING FOR HEAD 
                                                   Max.-Head-Change                         Max.-Flux-Residual
  Residual-Control   Outer-Iter.   Inner-Iter.     Column Row Layer    Maximum-Head-Change  Column Row Layer    Maximum-Flux-Residual          L2-NORM 
          0                 1           2             8    2     1       0.5680837292E-02       6    4    1         0.2588423197E+00      0.1518722381E+01
          0                 2           2             8    2     1       0.2553452774E-02       8    2    1         0.6630979943E-01      0.3817879780E+00
          0                 3           2             8    2     1       0.1147737857E-02       8    2    1         0.2980527353E-01      0.1409966301E+00
          0                 4           2             8    2     1       0.5158898420E-03       8    2    1         0.1339701030E-01      0.6089352068E-01
          0                 5           2             8    2     1       0.2318839204E-03       8    2    1         0.6021740774E-02      0.2711938803E-01
          0                 6           1             8    2     1       0.1042278249E-03       8    2    1         0.2706671841E-02      0.1213703905E-01
          0                 7           1             8    2     1       0.4684854338E-04       8    2    1         0.1216602022E-02      0.5436105676E-02
          0                 8           1             8    2     1       0.2105755205E-04       8    2    1         0.5468407118E-03      0.2435198340E-02
          0                 9           1             8    2     1       0.9464965969E-05       8    2    1         0.2457947034E-03      0.1090964163E-02

    ------------------------------------------------
       NWT REQUIRED            9 OUTER ITERATIONS 
       AND A TOTAL OF         14 INNER ITERATIONS.
    ------------------------------------------------

 NO OUTPUT CONTROL FOR STRESS PERIOD   13   TIME STEP   14
 
 SOLVING FOR HEAD 
                                                   Max.-Head-Change                         Max.-Flux-Residual
  Residual-Control   Outer-Iter.   Inner-Iter.     Column Row Layer    Maximum-Head-Change  Column Row Layer    Maximum-Flux-Residual          L2-NORM 
          0                 1           2             8    2     1       0.5678867765E-02       6    4    1         0.2587072827E+00      0.1518048654E+01
          0                 2           2             8    2     1       0.2552564675E-02       8    2    1         0.6628679664E-01      0.3815705233E+00
          0                 3           2             8    2     1       0.1147337406E-02       8    2    1         0.2979490118E-01      0.1408912956E+00
          0                 4           2             8    2     1       0.5157092786E-03       8    2    1         0.1339233333E-01      0.6084485370E-01
          0                 5           2             8    2     1       0.2318025065E-03       8    2    1         0.6019631945E-02      0.2709738298E-01
          0                 6           1             8    2     1       0.1041911174E-03       8    2    1         0.2705720999E-02      0.1212713277E-01
          0                 7           1             8    2     1       0.4683199329E-04       8    2    1         0.1216173310E-02      0.5431651327E-02
          0                 8           1             8    2     1       0.2105009024E-04       8    2    1         0.5466474161E-03      0.2433196542E-02
          0                 9           1             8    2     1       0.9461601225E-05       8    2    1         0.2457075509E-03      0.1090065135E-02

    ------------------------------------------------
       NWT REQUIRED            9 OUTER ITERATIONS 
       AND A TOTAL OF         14 INNER ITERATIONS.
    ------------------------------------------------

 NO OUTPUT CONTROL FOR STRESS PERIOD   13   TIME STEP   15
 
 SOLVING FOR HEAD 
                                                   Max.-Head-Change                         Max.-Flux-Residual
  Residual-Control   Outer-Iter.   Inner-Iter.     Column Row Layer    Maximum-Head-Change  Column Row Layer    Maximum-Flux-Residual          L2-NORM 
          0                 1           2             8    2     1       0.5676792593E-02       6    4    1         0.2585729500E+00      0.1517247126E+01
          0                 2           2             8    2     1       0.2551629218E-02       8    2    1         0.6626256132E-01      0.3813417677E+00
          0                 3           2             8    2     1       0.1146915724E-02       8    2    1         0.2978397629E-01      0.1407874286E+00
          0                 4           2             8    2     1       0.5155191987E-03       8    2    1         0.1338740867E-01      0.6079726214E-01
          0                 5           2             8    2     1       0.2317168265E-03       8    2    1         0.6017412077E-02      0.2707584024E-01
          0                 6           1             8    2     1       0.1041524970E-03       8    2    1         0.2704720380E-02      0.1211741382E-01
          0                 7           1             8    2     1       0.4681458556E-04       8    2    1         0.1215722286E-02      0.5427272078E-02
          0                 8           1             8    2     1       0.2104224425E-04       8    2    1         0.5464441248E-03      0.2431224998E-02
          0                 9           1             8    2     1       0.9458065155E-05       8    2    1         0.2456159207E-03      0.1089177674E-02

    ------------------------------------------------
       NWT REQUIRED            9 OUTER ITERATIONS 
       AND A TOTAL OF         14 INNER ITERATIONS.
    ------------------------------------------------

 NO OUTPUT CONTROL FOR STRESS PERIOD   13   TIME STEP   16
 
 SOLVING FOR HEAD 
                                                   Max.-Head-Change                         Max.-Flux-Residual
  Residual-Control   Outer-Iter.   Inner-Iter.     Column Row Layer    Maximum-Head-Change  Column Row Layer    Maximum-Flux-Residual          L2-NORM 
          0                 1           2             8    2     1       0.5674712476E-02       6    4    1         0.2584391786E+00      0.1516569881E+01
          0                 2           2             8    2     1       0.2550691457E-02       8    2    1         0.6623826790E-01      0.3811189356E+00
          0                 3           2             8    2     1       0.1146492970E-02       8    2    1         0.2977302434E-01      0.1406807371E+00
          0                 4           2             8    2     1       0.5153286206E-03       8    2    1         0.1338247142E-01      0.6074839451E-01
          0                 5           2             8    2     1       0.2316309151E-03       8    2    1         0.6015186361E-02      0.2705390675E-01
          0                 6           1             8    2     1       0.1041137695E-03       8    2    1         0.2703717046E-02      0.1210760712E-01
          0                 7           1             8    2     1       0.4679712806E-04       8    2    1         0.1215270001E-02      0.5422890934E-02
          0                 8           1             8    2     1       0.2103437526E-04       8    2    1         0.5462402497E-03      0.2429268176E-02
          0                 9           1             8    2     1       0.9454518080E-05       8    2    1         0.2455240200E-03      0.1088304546E-02

    ------------------------------------------------
       NWT REQUIRED            9 OUTER ITERATIONS 
       AND A TOTAL OF         14 INNER ITERATIONS.
    ------------------------------------------------

 NO OUTPUT CONTROL FOR STRESS PERIOD   13   TIME STEP   17
 
 SOLVING FOR HEAD 
                                                   Max.-Head-Change                         Max.-Flux-Residual
  Residual-Control   Outer-Iter.   Inner-Iter.     Column Row Layer    Maximum-Head-Change  Column Row Layer    Maximum-Flux-Residual          L2-NORM 
          0                 1           2             8    2     1       0.5672727786E-02       6    4    1         0.2583001354E+00      0.1515523497E+01
          0                 2           2             8    2     1       0.2549796614E-02       8    2    1         0.6621508847E-01      0.3808326652E+00
          0                 3           2             8    2     1       0.1146089518E-02       8    2    1         0.2976257340E-01      0.1405627858E+00
          0                 4           2             8    2     1       0.5151467228E-03       8    2    1         0.1337775950E-01      0.6069662542E-01
          0                 5           2             8    2     1       0.2315489079E-03       8    2    1         0.6013061985E-02      0.2703095875E-01
          0                 6           1             8    2     1       0.1040767979E-03       8    2    1         0.2702759285E-02      0.1209739181E-01
          0                 7           1             8    2     1       0.4678046041E-04       8    2    1         0.1214838209E-02      0.5418332248E-02
          0                 8           1             8    2     1       0.2102686067E-04       8    2    1         0.5460455840E-03      0.2427230789E-02
          0                 9           1             8    2     1       0.9451130576E-05       8    2    1         0.2454362678E-03      0.1087392370E-02

    ------------------------------------------------
       NWT REQUIRED            9 OUTER ITERATIONS 
       AND A TOTAL OF         14 INNER ITERATIONS.
    ------------------------------------------------

 NO OUTPUT CONTROL FOR STRESS PERIOD   13   TIME STEP   18
 
 SOLVING FOR HEAD 
                                                   Max.-Head-Change                         Max.-Flux-Residual
  Residual-Control   Outer-Iter.   Inner-Iter.     Column Row Layer    Maximum-Head-Change  Column Row Layer    Maximum-Flux-Residual          L2-NORM 
          0                 1           2             8    2     1       0.5670637503E-02       6    4    1         0.2581678689E+00      0.1514808666E+01
          0                 2           2             8    2     1       0.2548854332E-02       8    2    1         0.6619067661E-01      0.3806061027E+00
          0                 3           2             8    2     1       0.1145664755E-02       8    2    1         0.2975156878E-01      0.1404557640E+00
          0                 4           2             8    2     1       0.5149552513E-03       8    2    1         0.1337279884E-01      0.6064762480E-01
          0                 5           2             8    2     1       0.2314625999E-03       8    2    1         0.6010825871E-02      0.2700890160E-01
          0                 6           1             8    2     1       0.1040378943E-03       8    2    1         0.2701751336E-02      0.1208749292E-01
          0                 7           1             8    2     1       0.4676292512E-04       8    2    1         0.1214383878E-02      0.5413892423E-02
          0                 8           1             8    2     1       0.2101895691E-04       8    2    1         0.5458407976E-03      0.2425239278E-02
          0                 9           1             8    2     1       0.9447568245E-05       8    2    1         0.2453439634E-03      0.1086499401E-02

    ------------------------------------------------
       NWT REQUIRED            9 OUTER ITERATIONS 
       AND A TOTAL OF         14 INNER ITERATIONS.
    ------------------------------------------------

 NO OUTPUT CONTROL FOR STRESS PERIOD   13   TIME STEP   19
 
 SOLVING FOR HEAD 
                                                   Max.-Head-Change                         Max.-Flux-Residual
  Residual-Control   Outer-Iter.   Inner-Iter.     Column Row Layer    Maximum-Head-Change  Column Row Layer    Maximum-Flux-Residual          L2-NORM 
          0                 1           2             8    2     1       0.5668642681E-02       6    4    1         0.2580302705E+00      0.1514225875E+01
          0                 2           2             8    2     1       0.2547954880E-02       8    2    1         0.6616737865E-01      0.3803751868E+00
          0                 3           2             8    2     1       0.1145259208E-02       8    2    1         0.2974106394E-01      0.1403380984E+00
          0                 4           2             8    2     1       0.5147724014E-03       8    2    1         0.1336806240E-01      0.6059300861E-01
          0                 5           2             8    2     1       0.2313801595E-03       8    2    1         0.6008690348E-02      0.2698418597E-01
          0                 6           1             8    2     1       0.1040007261E-03       8    2    1         0.2700788515E-02      0.1207635801E-01
          0                 7           1             8    2     1       0.4674616768E-04       8    2    1         0.1213949787E-02      0.5408880005E-02
          0                 8           1             8    2     1       0.2101140256E-04       8    2    1         0.5456450959E-03      0.2422983625E-02
          0                 9           1             8    2     1       0.9444162232E-05       8    2    1         0.2452557315E-03      0.1085484129E-02

    ------------------------------------------------
       NWT REQUIRED            9 OUTER ITERATIONS 
       AND A TOTAL OF         14 INNER ITERATIONS.
    ------------------------------------------------

 NO OUTPUT CONTROL FOR STRESS PERIOD   13   TIME STEP   20
 
 SOLVING FOR HEAD 
                                                   Max.-Head-Change                         Max.-Flux-Residual
  Residual-Control   Outer-Iter.   Inner-Iter.     Column Row Layer    Maximum-Head-Change  Column Row Layer    Maximum-Flux-Residual          L2-NORM 
          0                 1           2             8    2     1       0.5666542249E-02       6    4    1         0.2578996345E+00      0.1513415403E+01
          0                 2           2             8    2     1       0.2547008084E-02       8    2    1         0.6614284856E-01      0.3801058090E+00
          0                 3           2             8    2     1       0.1144832437E-02       8    2    1         0.2973000674E-01      0.1402136600E+00
          0                 4           2             8    2     1       0.5145800365E-03       8    2    1         0.1336307835E-01      0.6053656003E-01
          0                 5           2             8    2     1       0.2312934543E-03       8    2    1         0.6006443831E-02      0.2695892357E-01
          0                 6           1             8    2     1       0.1039616457E-03       8    2    1         0.2699775933E-02      0.1206507856E-01
          0                 7           1             8    2     1       0.4672855386E-04       8    2    1         0.1213493393E-02      0.5403844737E-02
          0                 8           1             8    2     1       0.2100346354E-04       8    2    1         0.5454393897E-03      0.2420735367E-02
          0                 9           1             8    2     1       0.9440584144E-05       8    2    1         0.2451630191E-03      0.1084487691E-02

    ------------------------------------------------
       NWT REQUIRED            9 OUTER ITERATIONS 
       AND A TOTAL OF         14 INNER ITERATIONS.
    ------------------------------------------------

 NO OUTPUT CONTROL FOR STRESS PERIOD   13   TIME STEP   21
 
 SOLVING FOR HEAD 
                                                   Max.-Head-Change                         Max.-Flux-Residual
  Residual-Control   Outer-Iter.   Inner-Iter.     Column Row Layer    Maximum-Head-Change  Column Row Layer    Maximum-Flux-Residual          L2-NORM 
          0                 1           2             8    2     1       0.5664437352E-02       6    4    1         0.2577635900E+00      0.1512716264E+01
          0                 2           2             8    2     1       0.2546059408E-02       8    2    1         0.6611826694E-01      0.3798814747E+00
          0                 3           2             8    2     1       0.1144404876E-02       8    2    1         0.2971892784E-01      0.1401087710E+00
          0                 4           2             8    2     1       0.5143873422E-03       8    2    1         0.1335808520E-01      0.6048850929E-01
          0                 5           2             8    2     1       0.2312066115E-03       8    2    1         0.6004193506E-02      0.2693727226E-01
          0                 6           1             8    2     1       0.1039225086E-03       8    2    1         0.2698761773E-02      0.1205535474E-01
          0                 7           1             8    2     1       0.4671091628E-04       8    2    1         0.1213036347E-02      0.5399480317E-02
          0                 8           1             8    2     1       0.2099551551E-04       8    2    1         0.5452334211E-03      0.2418776625E-02
          0                 9           1             8    2     1       0.9437002554E-05       8    2    1         0.2450701974E-03      0.1083600956E-02

    ------------------------------------------------
       NWT REQUIRED            9 OUTER ITERATIONS 
       AND A TOTAL OF         14 INNER ITERATIONS.
    ------------------------------------------------

 NO OUTPUT CONTROL FOR STRESS PERIOD   13   TIME STEP   22
 
 SOLVING FOR HEAD 
                                                   Max.-Head-Change                         Max.-Flux-Residual
  Residual-Control   Outer-Iter.   Inner-Iter.     Column Row Layer    Maximum-Head-Change  Column Row Layer    Maximum-Flux-Residual          L2-NORM 
          0                 1           2             8    2     1       0.5662327967E-02       6    4    1         0.2576344497E+00      0.1512105727E+01
          0                 2           2             8    2     1       0.2545108573E-02       8    2    1         0.6609363227E-01      0.3796713130E+00
          0                 3           2             8    2     1       0.1143976283E-02       8    2    1         0.2970782347E-01      0.1400048474E+00
          0                 4           2             8    2     1       0.5141941549E-03       8    2    1         0.1335307986E-01      0.6044052621E-01
          0                 5           2             8    2     1       0.2311195348E-03       8    2    1         0.6001937373E-02      0.2691563423E-01
          0                 6           1             8    2     1       0.1038832604E-03       8    2    1         0.2697744847E-02      0.1204563707E-01
          0                 7           1             8    2     1       0.4669322618E-04       8    2    1         0.1212577988E-02      0.5395119184E-02
          0                 8           1             8    2     1       0.2098754222E-04       8    2    1         0.5450268298E-03      0.2416821987E-02
          0                 9           1             8    2     1       0.9433408708E-05       8    2    1         0.2449770861E-03      0.1082729167E-02

    ------------------------------------------------
       NWT REQUIRED            9 OUTER ITERATIONS 
       AND A TOTAL OF         14 INNER ITERATIONS.
    ------------------------------------------------

 NO OUTPUT CONTROL FOR STRESS PERIOD   13   TIME STEP   23
 
 SOLVING FOR HEAD 
                                                   Max.-Head-Change                         Max.-Flux-Residual
  Residual-Control   Outer-Iter.   Inner-Iter.     Column Row Layer    Maximum-Head-Change  Column Row Layer    Maximum-Flux-Residual          L2-NORM 
          0                 1           2             8    2     1       0.5660213807E-02       6    4    1         0.2574999389E+00      0.1511582263E+01
          0                 2           2             8    2     1       0.2544155571E-02       8    2    1         0.6606894176E-01      0.3794675655E+00
          0                 3           2             8    2     1       0.1143546706E-02       8    2    1         0.2969669374E-01      0.1399022044E+00
          0                 4           2             8    2     1       0.5140005229E-03       8    2    1         0.1334806304E-01      0.6039304523E-01
          0                 5           2             8    2     1       0.2310322566E-03       8    2    1         0.5999676039E-02      0.2689420996E-01
          0                 6           1             8    2     1       0.1038439215E-03       8    2    1         0.2696725575E-02      0.1203601137E-01
          0                 7           1             8    2     1       0.4667549505E-04       8    2    1         0.1212118567E-02      0.5390797695E-02
          0                 8           1             8    2     1       0.2097955042E-04       8    2    1         0.5448197580E-03      0.2414879858E-02
          0                 9           1             8    2     1       0.9429806859E-05       8    2    1         0.2448837569E-03      0.1081852201E-02

    ------------------------------------------------
       NWT REQUIRED            9 OUTER ITERATIONS 
       AND A TOTAL OF         14 INNER ITERATIONS.
    ------------------------------------------------

 NO OUTPUT CONTROL FOR STRESS PERIOD   13   TIME STEP   24
 
 SOLVING FOR HEAD 
                                                   Max.-Head-Change                         Max.-Flux-Residual
  Residual-Control   Outer-Iter.   Inner-Iter.     Column Row Layer    Maximum-Head-Change  Column Row Layer    Maximum-Flux-Residual          L2-NORM 
          0                 1           2             8    2     1       0.5658195453E-02       6    4    1         0.2573664000E+00      0.1511068057E+01
          0                 2           2             8    2     1       0.2543245659E-02       8    2    1         0.6604536968E-01      0.3792651164E+00
          0                 3           2             8    2     1       0.1143136509E-02       8    2    1         0.2968606704E-01      0.1398001063E+00
          0                 4           2             8    2     1       0.5138156064E-03       8    2    1         0.1334327244E-01      0.6034581374E-01
          0                 5           2             8    2     1       0.2309488980E-03       8    2    1         0.5997516452E-02      0.2687289805E-01
          0                 6           1             8    2     1       0.1038063453E-03       8    2    1         0.2695752063E-02      0.1202643594E-01
          0                 7           1             8    2     1       0.4665855678E-04       8    2    1         0.1211679731E-02      0.5386498735E-02
          0                 8           1             8    2     1       0.2097191528E-04       8    2    1         0.5446219443E-03      0.2412966194E-02
          0                 9           1             8    2     1       0.9426365581E-05       8    2    1         0.2447945931E-03      0.1081030524E-02

    ------------------------------------------------
       NWT REQUIRED            9 OUTER ITERATIONS 
       AND A TOTAL OF         14 INNER ITERATIONS.
    ------------------------------------------------

 NO OUTPUT CONTROL FOR STRESS PERIOD   13   TIME STEP   25
 
 SOLVING FOR HEAD 
                                                   Max.-Head-Change                         Max.-Flux-Residual
  Residual-Control   Outer-Iter.   Inner-Iter.     Column Row Layer    Maximum-Head-Change  Column Row Layer    Maximum-Flux-Residual          L2-NORM 
          0                 1           2             8    2     1       0.5656071780E-02       6    4    1         0.2572336380E+00      0.1510442046E+01
          0                 2           2             8    2     1       0.2542288476E-02       8    2    1         0.6602056857E-01      0.3790592019E+00
          0                 3           2             8    2     1       0.1142705095E-02       8    2    1         0.2967488871E-01      0.1397027931E+00
          0                 4           2             8    2     1       0.5136211670E-03       8    2    1         0.1333823426E-01      0.6030070138E-01
          0                 5           2             8    2     1       0.2308612654E-03       8    2    1         0.5995245732E-02      0.2685233436E-01
          0                 6           1             8    2     1       0.1037668503E-03       8    2    1         0.2694728662E-02      0.1201711276E-01
          0                 7           1             8    2     1       0.4664075738E-04       8    2    1         0.1211218501E-02      0.5382283805E-02
          0                 8           1             8    2     1       0.2096389397E-04       8    2    1         0.5444140805E-03      0.2411050357E-02
          0                 9           1             8    2     1       0.9422750476E-05       8    2    1         0.2447009113E-03      0.1080135035E-02

    ------------------------------------------------
       NWT REQUIRED            9 OUTER ITERATIONS 
       AND A TOTAL OF         14 INNER ITERATIONS.
    ------------------------------------------------

 NO OUTPUT CONTROL FOR STRESS PERIOD   13   TIME STEP   26
 
 SOLVING FOR HEAD 
                                                   Max.-Head-Change                         Max.-Flux-Residual
  Residual-Control   Outer-Iter.   Inner-Iter.     Column Row Layer    Maximum-Head-Change  Column Row Layer    Maximum-Flux-Residual          L2-NORM 
          0                 1           2             8    2     1       0.5653943810E-02       6    4    1         0.2571076793E+00      0.1509764011E+01
          0                 2           2             8    2     1       0.2541329440E-02       8    2    1         0.6599571771E-01      0.3788639466E+00
          0                 3           2             8    2     1       0.1142272884E-02       8    2    1         0.2966368894E-01      0.1396122337E+00
          0                 4           2             8    2     1       0.5134263845E-03       8    2    1         0.1333318683E-01      0.6025831095E-01
          0                 5           2             8    2     1       0.2307734852E-03       8    2    1         0.5992971043E-02      0.2683282022E-01
          0                 6           1             8    2     1       0.1037272919E-03       8    2    1         0.2693703563E-02      0.1200819196E-01
          0                 7           1             8    2     1       0.4662293147E-04       8    2    1         0.1210756550E-02      0.5378221122E-02
          0                 8           1             8    2     1       0.2095586040E-04       8    2    1         0.5442059024E-03      0.2409203210E-02
          0                 9           1             8    2     1       0.9419130369E-05       8    2    1         0.2446071041E-03      0.1079293081E-02

    ------------------------------------------------
       NWT REQUIRED            9 OUTER ITERATIONS 
       AND A TOTAL OF         14 INNER ITERATIONS.
    ------------------------------------------------

 NO OUTPUT CONTROL FOR STRESS PERIOD   13   TIME STEP   27
 
 SOLVING FOR HEAD 
                                                   Max.-Head-Change                         Max.-Flux-Residual
  Residual-Control   Outer-Iter.   Inner-Iter.     Column Row Layer    Maximum-Head-Change  Column Row Layer    Maximum-Flux-Residual          L2-NORM 
          0                 1           2             8    2     1       0.5651811546E-02       6    4    1         0.2569765286E+00      0.1509106762E+01
          0                 2           2             8    2     1       0.2540368394E-02       8    2    1         0.6597081631E-01      0.3786402586E+00
          0                 3           2             8    2     1       0.1141839734E-02       8    2    1         0.2965246552E-01      0.1395079933E+00
          0                 4           2             8    2     1       0.5132311651E-03       8    2    1         0.1332812838E-01      0.6021085694E-01
          0                 5           2             8    2     1       0.2306855019E-03       8    2    1         0.5990691220E-02      0.2681148501E-01
          0                 6           1             8    2     1       0.1036876403E-03       8    2    1         0.2692676076E-02      0.1199862020E-01
          0                 7           1             8    2     1       0.4660506078E-04       8    2    1         0.1210293473E-02      0.5373928030E-02
          0                 8           1             8    2     1       0.2094780683E-04       8    2    1         0.5439972101E-03      0.2407277533E-02
          0                 9           1             8    2     1       0.9415501258E-05       8    2    1         0.2445130561E-03      0.1078429189E-02

    ------------------------------------------------
       NWT REQUIRED            9 OUTER ITERATIONS 
       AND A TOTAL OF         14 INNER ITERATIONS.
    ------------------------------------------------

 NO OUTPUT CONTROL FOR STRESS PERIOD   13   TIME STEP   28
 
 SOLVING FOR HEAD 
                                                   Max.-Head-Change                         Max.-Flux-Residual
  Residual-Control   Outer-Iter.   Inner-Iter.     Column Row Layer    Maximum-Head-Change  Column Row Layer    Maximum-Flux-Residual          L2-NORM 
          0                 1           2             8    2     1       0.5649674979E-02       6    4    1         0.2568463035E+00      0.1508589510E+01
          0                 2           2             8    2     1       0.2539405484E-02       8    2    1         0.6594586504E-01      0.3784251622E+00
          0                 3           2             8    2     1       0.1141405776E-02       8    2    1         0.2964122049E-01      0.1394000684E+00
          0                 4           2             8    2     1       0.5130355953E-03       8    2    1         0.1332306057E-01      0.6016125234E-01
          0                 5           2             8    2     1       0.2305973672E-03       8    2    1         0.5988407343E-02      0.2678919642E-01
          0                 6           1             8    2     1       0.1036479222E-03       8    2    1         0.2691646837E-02      0.1198863406E-01
          0                 7           1             8    2     1       0.4658716259E-04       8    2    1         0.1209829655E-02      0.5369453103E-02
          0                 8           1             8    2     1       0.2093974149E-04       8    2    1         0.5437881953E-03      0.2405271538E-02
          0                 9           1             8    2     1       0.9411866644E-05       8    2    1         0.2444188657E-03      0.1077529707E-02

    ------------------------------------------------
       NWT REQUIRED            9 OUTER ITERATIONS 
       AND A TOTAL OF         14 INNER ITERATIONS.
    ------------------------------------------------

 NO OUTPUT CONTROL FOR STRESS PERIOD   13   TIME STEP   29
 
 SOLVING FOR HEAD 
                                                   Max.-Head-Change                         Max.-Flux-Residual
  Residual-Control   Outer-Iter.   Inner-Iter.     Column Row Layer    Maximum-Head-Change  Column Row Layer    Maximum-Flux-Residual          L2-NORM 
          0                 1           2             8    2     1       0.5647534198E-02       6    4    1         0.2567168586E+00      0.1508064243E+01
          0                 2           2             8    2     1       0.2538440656E-02       8    2    1         0.6592086446E-01      0.3782085660E+00
          0                 3           2             8    2     1       0.1140970948E-02       8    2    1         0.2962995303E-01      0.1392921730E+00
          0                 4           2             8    2     1       0.5128396303E-03       8    2    1         0.1331798256E-01      0.6011160251E-01
          0                 5           2             8    2     1       0.2305090530E-03       8    2    1         0.5986118839E-02      0.2676687207E-01
          0                 6           1             8    2     1       0.1036081233E-03       8    2    1         0.2690615498E-02      0.1197863355E-01
          0                 7           1             8    2     1       0.4656922712E-04       8    2    1         0.1209364879E-02      0.5364975177E-02
          0                 8           1             8    2     1       0.2093165941E-04       8    2    1         0.5435787488E-03      0.2403266461E-02
          0                 9           1             8    2     1       0.9408224277E-05       8    2    1         0.2443244783E-03      0.1076632323E-02

    ------------------------------------------------
       NWT REQUIRED            9 OUTER ITERATIONS 
       AND A TOTAL OF         14 INNER ITERATIONS.
    ------------------------------------------------

 NO OUTPUT CONTROL FOR STRESS PERIOD   13   TIME STEP   30



 STREAM LISTING     PERIOD     13   STEP       30

 LAYER ROW COL. STREAM  RCH.  FLOW INTO     FLOW TO   FLOW OUT OF   OVRLND.     DIRECT     STREAM       STREAM     STREAM     STREAM   STREAMBED  STREAMBED
                SEG.NO.  NO.  STRM. RCH.    AQUIFER    STRM. RCH.    RUNOFF     PRECIP       ET          HEAD       DEPTH      WIDTH   CONDCTNC.   GRADIENT

   1    1    1     1     1    3.1000E+00  7.9303E-02   3.0207E+00  0.000E+00  0.000E+00  0.000E+00  1.09369E+03  6.377E-01  4.844E+00  2.180E-02  1.213E+00
   1    2    2     1     2    3.0207E+00  1.2174E-01   2.8990E+00  0.000E+00  0.000E+00  0.000E+00  1.08869E+03  6.304E-01  4.791E+00  3.353E-02  1.210E+00
   1    3    3     1     3    2.8990E+00  1.0276E-01   2.7962E+00  0.000E+00  0.000E+00  0.000E+00  1.08304E+03  6.219E-01  4.729E+00  2.837E-02  1.207E+00
   1    3    4     1     4    2.7962E+00  9.3747E-02   2.7024E+00  0.000E+00  0.000E+00  0.000E+00  1.07802E+03  6.144E-01  4.673E+00  2.594E-02  1.205E+00
   1    4    5     2     1    7.0245E-01  0.0000E+00   7.0245E-01  0.000E+00  0.000E+00  0.000E+00  1.07208E+03  1.416E-01  1.200E+01  0.000E+00  1.047E+00
   1    5    6     2     2    7.0245E-01  0.0000E+00   7.0245E-01  0.000E+00  0.000E+00  0.000E+00  1.06665E+03  1.416E-01  1.200E+01  0.000E+00  1.047E+00
   1    6    6     2     3    7.0245E-01  0.0000E+00   7.0245E-01  0.000E+00  0.000E+00  0.000E+00  1.06193E+03  1.416E-01  1.200E+01  0.000E+00  1.047E+00
   1    7    6     2     4    7.0245E-01  0.0000E+00   7.0245E-01  0.000E+00  0.000E+00  0.000E+00  1.05722E+03  1.416E-01  1.200E+01  0.000E+00  1.047E+00
   1    8    6     2     5    7.0245E-01  0.0000E+00   7.0245E-01  0.000E+00  0.000E+00  0.000E+00  1.05250E+03  1.416E-01  1.200E+01  0.000E+00  1.047E+00
   1    3    5     3     1    2.0000E+00  2.8252E-01   1.7175E+00  0.000E+00  0.000E+00  0.000E+00  1.07555E+03  1.909E+00  9.636E+00  7.227E-02  1.955E+00
   1    3    6     3     2    1.7175E+00  2.4905E-01   1.4684E+00  0.000E+00  0.000E+00  0.000E+00  1.07264E+03  1.727E+00  8.909E+00  6.682E-02  1.864E+00
   1    3    7     3     3    1.4684E+00  1.9718E-01   1.2712E+00  0.000E+00  0.000E+00  0.000E+00  1.06987E+03  1.555E+00  8.218E+00  5.547E-02  1.777E+00
   1    4    8     3     4    1.2712E+00  2.2567E-01   1.0456E+00  0.000E+00  0.000E+00  0.000E+00  1.06682E+03  1.364E+00  7.455E+00  6.709E-02  1.682E+00
   1    5    8     3     5    1.0456E+00  1.5790E-01   8.8768E-01  0.000E+00  0.000E+00  0.000E+00  1.06362E+03  1.164E+00  6.655E+00  4.991E-02  1.582E+00
   1    6    8     3     6    8.8768E-01  5.5980E-02   8.3170E-01  0.000E+00  0.000E+00  0.000E+00  1.06158E+03  1.036E+00  6.145E+00  1.844E-02  1.518E+00
   1    5   10     4     1    1.0000E+01  0.0000E+00   1.0000E+01  0.000E+00  0.000E+00  0.000E+00  1.07837E+03  6.385E-01  1.000E+01  0.000E+00  1.213E+00
   1    5    9     4     2    1.0000E+01  0.0000E+00   1.0000E+01  0.000E+00  0.000E+00  0.000E+00  1.07155E+03  6.385E-01  1.000E+01  0.000E+00  1.213E+00
   1    6    8     4     3    1.0000E+01  0.0000E+00   1.0000E+01  0.000E+00  0.000E+00  0.000E+00  1.06382E+03  6.385E-01  1.000E+01  0.000E+00  1.213E+00
   1    6    8     5     1    1.0832E+01  2.3262E-01   1.0599E+01  0.000E+00  0.000E+00  0.000E+00  1.05869E+03  6.881E-01  1.577E+01  6.307E-02  1.229E+00
   1    7    7     5     2    1.0599E+01  2.8607E-01   1.0313E+01  0.000E+00  0.000E+00  0.000E+00  1.05418E+03  6.822E-01  1.554E+01  7.769E-02  1.227E+00
   1    8    7     5     3    1.0313E+01  1.9716E-01   1.0116E+01  0.000E+00  0.000E+00  0.000E+00  1.04993E+03  6.766E-01  1.532E+01  5.363E-02  1.226E+00
   1    8    6     5     4    1.0116E+01  1.3929E-01   9.9766E+00  0.000E+00  0.000E+00  0.000E+00  1.04692E+03  6.727E-01  1.517E+01  3.792E-02  1.224E+00
   1    9    6     6     1    1.0679E+01  0.0000E+00   1.0679E+01  0.000E+00  0.000E+00  0.000E+00  1.04346E+03  7.330E-01  1.200E+01  0.000E+00  1.244E+00
   1   10    7     6     2    1.0679E+01  0.0000E+00   1.0679E+01  0.000E+00  0.000E+00  0.000E+00  1.03891E+03  7.330E-01  1.200E+01  0.000E+00  1.244E+00
   1   11    7     6     3    1.0679E+01  0.0000E+00   1.0679E+01  0.000E+00  0.000E+00  0.000E+00  1.03437E+03  7.330E-01  1.200E+01  0.000E+00  1.244E+00
   1   12    7     6     4    1.0679E+01  0.0000E+00   1.0679E+01  0.000E+00  0.000E+00  0.000E+00  1.02982E+03  7.330E-01  1.200E+01  0.000E+00  1.244E+00
   1   13    7     6     5    1.0679E+01  0.0000E+00   1.0679E+01  0.000E+00  0.000E+00  0.000E+00  1.02664E+03  7.330E-01  1.200E+01  0.000E+00  2.597E-02
   1   14    9     7     1    1.5000E+02  1.2641E+00   1.4874E+02  0.000E+00  0.000E+00  0.000E+00  1.03987E+03  2.288E+00  5.530E+01  5.593E-01  7.534E-01
   1   13    8     7     2    1.4874E+02  1.9155E+00   1.4682E+02  0.000E+00  0.000E+00  0.000E+00  1.03478E+03  2.279E+00  5.526E+01  6.148E-01  1.039E+00
   1   13    7     7     3    1.4682E+02  1.7450E+00   1.4508E+02  0.000E+00  0.000E+00  0.000E+00  1.02969E+03  2.270E+00  5.521E+01  5.584E-01  1.042E+00
   1   13    6     8     1    1.5575E+02  1.1023E+00   1.5465E+02  0.000E+00  0.000E+00  0.000E+00  1.02473E+03  2.853E+00  4.137E+01  4.216E-01  8.716E-01
   1   13    5     8     2    1.5465E+02  3.3441E-01   1.5432E+02  0.000E+00  0.000E+00  0.000E+00  1.01847E+03  2.848E+00  4.130E+01  4.208E-01  2.649E-01
   1   13    4     8     3    1.5432E+02 -2.0335E+00   1.5635E+02  0.000E+00  0.000E+00  0.000E+00  1.01223E+03  2.854E+00  4.138E+01  4.217E+00 -1.607E-01
   1   13    3     8     4    1.5635E+02 -3.6008E+00   1.5995E+02  0.000E+00  0.000E+00  0.000E+00  1.00600E+03  2.873E+00  4.166E+01  4.246E+00 -2.827E-01
   1   13    2     8     5    1.5995E+02 -2.6693E+00   1.6262E+02  0.000E+00  0.000E+00  0.000E+00  9.99770E+02  2.895E+00  4.197E+01  4.277E+00 -2.080E-01
   1   13    1     8     6    1.6262E+02 -2.0370E+00   1.6466E+02  0.000E+00  0.000E+00  0.000E+00  9.94785E+02  2.910E+00  4.220E+01  2.580E+00 -2.632E-01
   1    6    8     9     1    0.0000E+00  0.0000E+00   0.0000E+00  0.000E+00  0.000E+00  0.000E+00  1.07850E+03  0.000E+00  4.000E+00  0.000E+00  1.000E+00





UNSATURATED ZONE PACKAGE VOLUMETRIC BUDGET FOR  TIME STEP    30 STRESS PERIOD   13
  ------------------------------------------------------------------------------



     CUMULATIVE VOLUMES      L**3       RATES FOR THIS TIME STEP      L**3/T
     ------------------                 ------------------------

           IN:                                      IN:
           ---                                      ---
        INFILTRATION =    46987424.2819          INFILTRATION =           0.8475

          OUT:                                     OUT:
          ----                                     ----
              UZF ET =   571745582.1700                UZF ET =           0.2900
        UZF RECHARGE =   808723464.5937          UZF RECHARGE =          22.8516

            IN - OUT = -1333481622.4818              IN - OUT =         -22.2941

          STORAGE:                                 STORAGE:
          --------                                 --------
      STORAGE CHANGE = -1333472942.9273        STORAGE CHANGE =         -22.2941

 PERCENT DISCREPANCY IS DIFFERENCE BETWEEN IN-OUT MINUS CHANGE IN STORAGE
 DIVIDED BY THE AVERAGE OF IN AND OUT TIMES 100

 PERCENT DISCREPANCY =          -0.00     PERCENT DISCREPANCY =           0.00






1
  VOLUMETRIC BUDGET FOR ENTIRE MODEL AT END OF TIME STEP   30, STRESS PERIOD  13
  ------------------------------------------------------------------------------

     CUMULATIVE VOLUMES      L**3       RATES FOR THIS TIME STEP      L**3/T
     ------------------                 ------------------------

           IN:                                      IN:
           ---                                      ---
             STORAGE =    28333456.0000               STORAGE =       3.2180E-02
       CONSTANT HEAD =           0.0000         CONSTANT HEAD =           0.0000
               WELLS =           0.0000                 WELLS =           0.0000
     HEAD DEP BOUNDS =     9719893.0000       HEAD DEP BOUNDS =           0.2809
      STREAM LEAKAGE =   344989344.0000        STREAM LEAKAGE =           8.7823
        UZF RECHARGE =   808723200.0000          UZF RECHARGE =          22.8516
               GW ET =           0.0000                 GW ET =           0.0000
     SURFACE LEAKAGE =           0.0000       SURFACE LEAKAGE =           0.0000

            TOTAL IN =  1191765888.0000              TOTAL IN =          31.9469

          OUT:                                     OUT:
          ----                                     ----
             STORAGE =   831985408.0000               STORAGE =          21.3151
       CONSTANT HEAD =           0.0000         CONSTANT HEAD =           0.0000
               WELLS =     1016027.8750                 WELLS =           0.0000
     HEAD DEP BOUNDS =     9787012.0000       HEAD DEP BOUNDS =           0.2878
      STREAM LEAKAGE =   277904032.0000        STREAM LEAKAGE =          10.3406
        UZF RECHARGE =           0.0000          UZF RECHARGE =           0.0000
               GW ET =    70996352.0000                 GW ET =       1.7509E-10
     SURFACE LEAKAGE =           0.0000       SURFACE LEAKAGE =           0.0000

           TOTAL OUT =  1191688832.0000             TOTAL OUT =          31.9435

            IN - OUT =       77056.0000              IN - OUT =       3.3665E-03

 PERCENT DISCREPANCY =           0.01     PERCENT DISCREPANCY =           0.01






         TIME SUMMARY AT END OF TIME STEP   30 IN STRESS PERIOD   13
                    SECONDS     MINUTES      HOURS       DAYS        YEARS
                    -----------------------------------------------------------
   TIME STEP LENGTH  87600.      1460.0      24.333      1.0139     2.77588E-03
 STRESS PERIOD TIME 2.62800E+06  43800.      730.00      30.417     8.32763E-02
         TOTAL TIME 3.41640E+07 5.69400E+05  9490.0      395.42      1.0826    
1
1
                            STRESS PERIOD NO.   14, LENGTH =   2628000.    
                            -----------------------------------------------

                              NUMBER OF TIME STEPS =    30

                               MULTIPLIER FOR DELT =     1.000

                            INITIAL TIME STEP SIZE =   87600.00    

 WELL NO.  LAYER   ROW   COL   STRESS RATE         
 --------------------------------------------------
      1      1      6      4       0.000    
      2      1      6      7       0.000    
      3      1      7      4       0.000    
      4      1      7      5       0.000    
      5      1      8      4       0.000    
      6      1      8      5       0.000    
      7      1      9      4       0.000    
      8      1      9      5       0.000    
      9      1     10      4       0.000    
     10      1     10      5       0.000    

     10 WELLS

 REUSING NON-PARAMETER GHB CELLS FROM LAST STRESS PERIOD

      2 GHB CELLS

 REUSING STREAM SEGMENT DATA FROM LAST STRESS PERIOD



            AREAL INFILTRATION RATE
 READING ON UNIT   19 WITH FORMAT: (10F4.0)            

            1           2           3           4           5           6           7           8           9          10
 ........................................................................................................................
   1   1.0000E-10  2.0000E-10   0.000       0.000       0.000       0.000       0.000       0.000       0.000       0.000    
   2   2.0000E-10  1.0000E-10  2.0000E-10   0.000       0.000      8.0000E-10  8.0000E-10  5.0000E-10   0.000       0.000    
   3    0.000      5.0000E-10  1.0000E-10  1.0000E-10  8.0000E-10  8.0000E-10  5.0000E-10  5.0000E-10   0.000       0.000    
   4   8.0000E-10  5.0000E-10  1.0000E-10  1.0000E-10  1.0000E-10  1.0000E-10  1.0000E-10  1.0000E-10  2.0000E-10   0.000    
   5   8.0000E-10  5.0000E-10  1.0000E-10  1.0000E-10  1.0000E-10  1.0000E-10  1.0000E-10  1.0000E-10  1.0000E-10  1.0000E-10
   6   8.0000E-10  5.0000E-10  5.0000E-10  2.0000E-10  2.0000E-10  1.0000E-10  1.0000E-10  1.0000E-10  1.0000E-10  5.0000E-10
   7   8.0000E-10  5.0000E-10  5.0000E-10  2.0000E-10  2.0000E-10  1.0000E-10  1.0000E-10  2.0000E-10  2.0000E-10   0.000    
   8    0.000      5.0000E-10  5.0000E-10  2.0000E-10  2.0000E-10  1.0000E-10  1.0000E-10  2.0000E-10  5.0000E-10   0.000    
   9    0.000      5.0000E-10  5.0000E-10  2.0000E-10  2.0000E-10  1.0000E-10  1.0000E-10  2.0000E-10  5.0000E-10   0.000    
  10    0.000      5.0000E-10  5.0000E-10  2.0000E-10  2.0000E-10  1.0000E-10  1.0000E-10  2.0000E-10  5.0000E-10  8.0000E-10
  11    0.000      1.0000E-10  1.0000E-10  1.0000E-10  1.0000E-10  1.0000E-10  1.0000E-10  2.0000E-10  5.0000E-10   0.000    
  12   1.0000E-10  1.0000E-10  1.0000E-10  1.0000E-10  1.0000E-10  1.0000E-10  1.0000E-10  1.0000E-10  2.0000E-10   0.000    
  13   1.0000E-10  1.0000E-10  2.0000E-10  2.0000E-10  2.0000E-10  2.0000E-10  2.0000E-10  1.0000E-10  1.0000E-10   0.000    
  14    0.000      2.0000E-10  5.0000E-10  5.0000E-10  5.0000E-10  5.0000E-10  5.0000E-10  2.0000E-10  1.0000E-10   0.000    
  15    0.000       0.000      8.0000E-10  8.0000E-10  8.0000E-10  8.0000E-10   0.000       0.000       0.000       0.000    

                  ET RATE =  1.000000E-10

 USING ET EXTINCTION DEPTH FROM PREVIOUS STRESS PERIOD. CURRENT PERIOD IS:      14

 USING EXTINCTION WATER CONTENT FROM PREVIOUS STRESS PERIOD. CURRENT PERIOD IS:      14
 
 SOLVING FOR HEAD 
                                                   Max.-Head-Change                         Max.-Flux-Residual
  Residual-Control   Outer-Iter.   Inner-Iter.     Column Row Layer    Maximum-Head-Change  Column Row Layer    Maximum-Flux-Residual          L2-NORM 
          0                 1           2             8    2     1       0.5645389298E-02       2    2    1         0.2654874470E+00      0.1556256738E+01
          0                 2           2             8    2     1       0.2537474046E-02       8    2    1         0.6589581612E-01      0.3827585639E+00
          0                 3           2             8    2     1       0.1140535347E-02       8    2    1         0.2961866490E-01      0.1395789009E+00
          0                 4           2             8    2     1       0.5126433316E-03       8    2    1         0.1331289562E-01      0.6010646018E-01
          0                 5           2             8    2     1       0.2304205950E-03       8    2    1         0.5983826472E-02      0.2675524636E-01
          0                 6           1             8    2     1       0.1035682616E-03       8    2    1         0.2689582486E-02      0.1197272304E-01
          0                 7           1             8    2     1       0.4655126515E-04       8    2    1         0.1208899382E-02      0.5362247242E-02
          0                 8           1             8    2     1       0.2092356531E-04       8    2    1         0.5433689881E-03      0.2402024344E-02
          0                 9           1             8    2     1       0.9404577408E-05       8    2    1         0.2442299637E-03      0.1076067529E-02

    ------------------------------------------------
       NWT REQUIRED            9 OUTER ITERATIONS 
       AND A TOTAL OF         14 INNER ITERATIONS.
    ------------------------------------------------

 NO OUTPUT CONTROL FOR STRESS PERIOD   14   TIME STEP    1
 
 SOLVING FOR HEAD 
                                                   Max.-Head-Change                         Max.-Flux-Residual
  Residual-Control   Outer-Iter.   Inner-Iter.     Column Row Layer    Maximum-Head-Change  Column Row Layer    Maximum-Flux-Residual          L2-NORM 
          0                 1           2             2    2     1       0.5947265560E-02       2    2    1         0.3098721688E+00      0.1599624251E+01
          0                 2           2             8    2     1       0.2536505598E-02       8    2    1         0.6587072058E-01      0.3865536918E+00
          0                 3           2             8    2     1       0.1140098910E-02       8    2    1         0.2960735528E-01      0.1398097637E+00
          0                 4           2             8    2     1       0.5124466526E-03       8    2    1         0.1330779889E-01      0.6010255919E-01
          0                 5           2             8    2     1       0.2303319634E-03       8    2    1         0.5981529647E-02      0.2674605689E-01
          0                 6           1             8    2     1       0.1035283216E-03       8    2    1         0.2688547450E-02      0.1196801144E-01
          0                 7           1             8    2     1       0.4653326691E-04       8    2    1         0.1208432963E-02      0.5360054883E-02
          0                 8           1             8    2     1       0.2091545546E-04       8    2    1         0.5431588129E-03      0.2401018732E-02
          0                 9           1             8    2     1       0.9400922785E-05       8    2    1         0.2441352517E-03      0.1075607805E-02

    ------------------------------------------------
       NWT REQUIRED            9 OUTER ITERATIONS 
       AND A TOTAL OF         14 INNER ITERATIONS.
    ------------------------------------------------

 NO OUTPUT CONTROL FOR STRESS PERIOD   14   TIME STEP    2
 
 SOLVING FOR HEAD 
                                                   Max.-Head-Change                         Max.-Flux-Residual
  Residual-Control   Outer-Iter.   Inner-Iter.     Column Row Layer    Maximum-Head-Change  Column Row Layer    Maximum-Flux-Residual          L2-NORM 
          0                 1           2             2    2     1       0.5924764888E-02       2    2    1         0.3086823613E+00      0.1595158041E+01
          0                 2           2             8    2     1       0.2535535257E-02       8    2    1         0.6584557661E-01      0.3862404790E+00
          0                 3           2             8    2     1       0.1139661607E-02       8    2    1         0.2959602348E-01      0.1397452597E+00
          0                 4           2             8    2     1       0.5122495771E-03       8    2    1         0.1330269201E-01      0.6007546761E-01
          0                 5           2             8    2     1       0.2302431510E-03       8    2    1         0.5979228184E-02      0.2673379030E-01
          0                 6           1             8    2     1       0.1034882988E-03       8    2    1         0.2687510292E-02      0.1196242601E-01
          0                 7           1             8    2     1       0.4651523115E-04       8    2    1         0.1207965573E-02      0.5357511661E-02
          0                 8           1             8    2     1       0.2090732760E-04       8    2    1         0.5429481893E-03      0.2399861437E-02
          0                 9           1             8    2     1       0.9397260659E-05       8    2    1         0.2440403453E-03      0.1075081210E-02

    ------------------------------------------------
       NWT REQUIRED            9 OUTER ITERATIONS 
       AND A TOTAL OF         14 INNER ITERATIONS.
    ------------------------------------------------

 NO OUTPUT CONTROL FOR STRESS PERIOD   14   TIME STEP    3
 
 SOLVING FOR HEAD 
                                                   Max.-Head-Change                         Max.-Flux-Residual
  Residual-Control   Outer-Iter.   Inner-Iter.     Column Row Layer    Maximum-Head-Change  Column Row Layer    Maximum-Flux-Residual          L2-NORM 
          0                 1           2             2    2     1       0.5902847868E-02       2    2    1         0.3075234064E+00      0.1591293171E+01
          0                 2           2             8    2     1       0.2534563180E-02       8    2    1         0.6582038585E-01      0.3859541549E+00
          0                 3           2             8    2     1       0.1139223560E-02       8    2    1         0.2958467159E-01      0.1396793006E+00
          0                 4           2             8    2     1       0.5120521834E-03       8    2    1         0.1329757652E-01      0.6004725532E-01
          0                 5           2             8    2     1       0.2301542022E-03       8    2    1         0.5976923036E-02      0.2672105683E-01
          0                 6           1             8    2     1       0.1034482180E-03       8    2    1         0.2686471565E-02      0.1195665162E-01
          0                 7           1             8    2     1       0.4649717113E-04       8    2    1         0.1207497521E-02      0.5354890893E-02
          0                 8           1             8    2     1       0.2089918999E-04       8    2    1         0.5427372847E-03      0.2398671822E-02
          0                 9           1             8    2     1       0.9393593781E-05       8    2    1         0.2439453087E-03      0.1074595624E-02

    ------------------------------------------------
       NWT REQUIRED            9 OUTER ITERATIONS 
       AND A TOTAL OF         14 INNER ITERATIONS.
    ------------------------------------------------

 NO OUTPUT CONTROL FOR STRESS PERIOD   14   TIME STEP    4
 
 SOLVING FOR HEAD 
                                                   Max.-Head-Change                         Max.-Flux-Residual
  Residual-Control   Outer-Iter.   Inner-Iter.     Column Row Layer    Maximum-Head-Change  Column Row Layer    Maximum-Flux-Residual          L2-NORM 
          0                 1           2             2    2     1       0.5881458575E-02       2    2    1         0.3063923635E+00      0.1587944943E+01
          0                 2           2             8    2     1       0.2533589291E-02       8    2    1         0.6579514878E-01      0.3856865636E+00
          0                 3           2             8    2     1       0.1138784682E-02       8    2    1         0.2957329849E-01      0.1396097689E+00
          0                 4           2             8    2     1       0.5118544096E-03       8    2    1         0.1329245132E-01      0.6001682377E-01
          0                 5           2             8    2     1       0.2300650806E-03       8    2    1         0.5974613452E-02      0.2670726511E-01
          0                 6           1             8    2     1       0.1034080580E-03       8    2    1         0.2685430804E-02      0.1195039543E-01
          0                 7           1             8    2     1       0.4647907435E-04       8    2    1         0.1207028532E-02      0.5352054110E-02
          0                 8           1             8    2     1       0.2089103562E-04       8    2    1         0.5425259537E-03      0.2397385963E-02
          0                 9           1             8    2     1       0.9389919650E-05       8    2    1         0.2438500844E-03      0.1073959285E-02

    ------------------------------------------------
       NWT REQUIRED            9 OUTER ITERATIONS 
       AND A TOTAL OF         14 INNER ITERATIONS.
    ------------------------------------------------

 NO OUTPUT CONTROL FOR STRESS PERIOD   14   TIME STEP    5
 
 SOLVING FOR HEAD 
                                                   Max.-Head-Change                         Max.-Flux-Residual
  Residual-Control   Outer-Iter.   Inner-Iter.     Column Row Layer    Maximum-Head-Change  Column Row Layer    Maximum-Flux-Residual          L2-NORM 
          0                 1           2             2    2     1       0.5860582950E-02       2    2    1         0.3052884847E+00      0.1584931322E+01
          0                 2           2             8    2     1       0.2532568560E-02       8    2    1         0.6576869262E-01      0.3854266059E+00
          0                 3           2             8    2     1       0.1138324807E-02       8    2    1         0.2956137888E-01      0.1395412610E+00
          0                 4           2             8    2     1       0.5116472221E-03       8    2    1         0.1328708112E-01      0.5998703951E-01
          0                 5           2             8    2     1       0.2299717380E-03       8    2    1         0.5972194029E-02      0.2669378195E-01
          0                 6           1             8    2     1       0.1033660060E-03       8    2    1         0.2684340807E-02      0.1194427818E-01
          0                 7           1             8    2     1       0.4646012969E-04       8    2    1         0.1206537476E-02      0.5349279490E-02
          0                 8           1             8    2     1       0.2088250108E-04       8    2    1         0.5423047312E-03      0.2396128124E-02
          0                 9           1             8    2     1       0.9386074693E-05       8    2    1         0.2437504229E-03      0.1073388698E-02

    ------------------------------------------------
       NWT REQUIRED            9 OUTER ITERATIONS 
       AND A TOTAL OF         14 INNER ITERATIONS.
    ------------------------------------------------

 NO OUTPUT CONTROL FOR STRESS PERIOD   14   TIME STEP    6
 
 SOLVING FOR HEAD 
                                                   Max.-Head-Change                         Max.-Flux-Residual
  Residual-Control   Outer-Iter.   Inner-Iter.     Column Row Layer    Maximum-Head-Change  Column Row Layer    Maximum-Flux-Residual          L2-NORM 
          0                 1           2             2    2     1       0.5840289062E-02       2    2    1         0.3042153538E+00      0.1582126160E+01
          0                 2           2             8    2     1       0.2531591545E-02       8    2    1         0.6574337220E-01      0.3851877826E+00
          0                 3           2             8    2     1       0.1137884570E-02       8    2    1         0.2954996950E-01      0.1394803314E+00
          0                 4           2             8    2     1       0.5114488583E-03       8    2    1         0.1328194015E-01      0.5996025998E-01
          0                 5           2             8    2     1       0.2298823593E-03       8    2    1         0.5969877581E-02      0.2668145063E-01
          0                 6           1             8    2     1       0.1033257344E-03       8    2    1         0.2683297070E-02      0.1193860305E-01
          0                 7           1             8    2     1       0.4644198463E-04       8    2    1         0.1206067203E-02      0.5346676588E-02
          0                 8           1             8    2     1       0.2087432595E-04       8    2    1         0.5420928499E-03      0.2394937226E-02
          0                 9           1             8    2     1       0.9382391558E-05       8    2    1         0.2436549628E-03      0.1072845204E-02

    ------------------------------------------------
       NWT REQUIRED            9 OUTER ITERATIONS 
       AND A TOTAL OF         14 INNER ITERATIONS.
    ------------------------------------------------

 NO OUTPUT CONTROL FOR STRESS PERIOD   14   TIME STEP    7
 
 SOLVING FOR HEAD 
                                                   Max.-Head-Change                         Max.-Flux-Residual
  Residual-Control   Outer-Iter.   Inner-Iter.     Column Row Layer    Maximum-Head-Change  Column Row Layer    Maximum-Flux-Residual          L2-NORM 
          0                 1           2             2    2     1       0.5820480564E-02       2    2    1         0.3031678843E+00      0.1579706433E+01
          0                 2           2             8    2     1       0.2530612837E-02       8    2    1         0.6571800853E-01      0.3849527499E+00
          0                 3           2             8    2     1       0.1137443557E-02       8    2    1         0.2953854028E-01      0.1394134840E+00
          0                 4           2             8    2     1       0.5112501381E-03       8    2    1         0.1327679007E-01      0.5993104661E-01
          0                 5           2             8    2     1       0.2297928180E-03       8    2    1         0.5967556974E-02      0.2666821092E-01
          0                 6           1             8    2     1       0.1032853885E-03       8    2    1         0.2682251425E-02      0.1193258847E-01
          0                 7           1             8    2     1       0.4642380581E-04       8    2    1         0.1205596052E-02      0.5343944828E-02
          0                 8           1             8    2     1       0.2086613507E-04       8    2    1         0.5418805592E-03      0.2393707213E-02
          0                 9           1             8    2     1       0.9378701169E-05       8    2    1         0.2435593078E-03      0.1072305193E-02

    ------------------------------------------------
       NWT REQUIRED            9 OUTER ITERATIONS 
       AND A TOTAL OF         14 INNER ITERATIONS.
    ------------------------------------------------

 NO OUTPUT CONTROL FOR STRESS PERIOD   14   TIME STEP    8
 
 SOLVING FOR HEAD 
                                                   Max.-Head-Change                         Max.-Flux-Residual
  Residual-Control   Outer-Iter.   Inner-Iter.     Column Row Layer    Maximum-Head-Change  Column Row Layer    Maximum-Flux-Residual          L2-NORM 
          0                 1           2             2    2     1       0.5801144706E-02       2    2    1         0.3021454119E+00      0.1577418217E+01
          0                 2           2             8    2     1       0.2529632298E-02       8    2    1         0.6569259905E-01      0.3847198209E+00
          0                 3           2             8    2     1       0.1137001686E-02       8    2    1         0.2952708953E-01      0.1393445676E+00
          0                 4           2             8    2     1       0.5110510159E-03       8    2    1         0.1327162991E-01      0.5990094099E-01
          0                 5           2             8    2     1       0.2297030887E-03       8    2    1         0.5965231642E-02      0.2665462758E-01
          0                 6           1             8    2     1       0.1032449555E-03       8    2    1         0.2681203582E-02      0.1192643987E-01
          0                 7           1             8    2     1       0.4640558622E-04       8    2    1         0.1205123875E-02      0.5341160114E-02
          0                 8           1             8    2     1       0.2085792542E-04       8    2    1         0.5416677909E-03      0.2392437321E-02
          0                 9           1             8    2     1       0.9375001527E-05       8    2    1         0.2434634338E-03      0.1071712512E-02

    ------------------------------------------------
       NWT REQUIRED            9 OUTER ITERATIONS 
       AND A TOTAL OF         14 INNER ITERATIONS.
    ------------------------------------------------

 NO OUTPUT CONTROL FOR STRESS PERIOD   14   TIME STEP    9
 
 SOLVING FOR HEAD 
                                                   Max.-Head-Change                         Max.-Flux-Residual
  Residual-Control   Outer-Iter.   Inner-Iter.     Column Row Layer    Maximum-Head-Change  Column Row Layer    Maximum-Flux-Residual          L2-NORM 
          0                 1           2             2    2     1       0.5782309835E-02       2    2    1         0.3011494189E+00      0.1575509739E+01
          0                 2           2             8    2     1       0.2528605178E-02       8    2    1         0.6566597382E-01      0.3845096317E+00
          0                 3           2             8    2     1       0.1136539003E-02       8    2    1         0.2951509564E-01      0.1392761695E+00
          0                 4           2             8    2     1       0.5108425964E-03       8    2    1         0.1326622709E-01      0.5987051642E-01
          0                 5           2             8    2     1       0.2296092053E-03       8    2    1         0.5962797897E-02      0.2664083823E-01
          0                 6           1             8    2     1       0.1032026658E-03       8    2    1         0.2680107300E-02      0.1192018684E-01
          0                 7           1             8    2     1       0.4638653801E-04       8    2    1         0.1204630069E-02      0.5338325198E-02
          0                 8           1             8    2     1       0.2084934486E-04       8    2    1         0.5414453576E-03      0.2391151931E-02
          0                 9           1             8    2     1       0.9371137061E-05       8    2    1         0.2433632483E-03      0.1071129350E-02

    ------------------------------------------------
       NWT REQUIRED            9 OUTER ITERATIONS 
       AND A TOTAL OF         14 INNER ITERATIONS.
    ------------------------------------------------

 NO OUTPUT CONTROL FOR STRESS PERIOD   14   TIME STEP   10
 
 SOLVING FOR HEAD 
                                                   Max.-Head-Change                         Max.-Flux-Residual
  Residual-Control   Outer-Iter.   Inner-Iter.     Column Row Layer    Maximum-Head-Change  Column Row Layer    Maximum-Flux-Residual          L2-NORM 
          0                 1           2             2    2     1       0.5763962963E-02       2    2    1         0.3001792319E+00      0.1573768957E+01
          0                 2           2             8    2     1       0.2527621649E-02       8    2    1         0.6564048575E-01      0.3842930758E+00
          0                 3           2             8    2     1       0.1136095808E-02       8    2    1         0.2950361008E-01      0.1392008769E+00
          0                 4           2             8    2     1       0.5106428882E-03       8    2    1         0.1326105150E-01      0.5983680461E-01
          0                 5           2             8    2     1       0.2295192168E-03       8    2    1         0.5960465738E-02      0.2662560219E-01
          0                 6           1             8    2     1       0.1031621175E-03       8    2    1         0.2679056424E-02      0.1191330245E-01
          0                 7           1             8    2     1       0.4636826715E-04       8    2    1         0.1204156550E-02      0.5335215201E-02
          0                 8           1             8    2     1       0.2084111271E-04       8    2    1         0.5412320002E-03      0.2389746681E-02
          0                 9           1             8    2     1       0.9367427664E-05       8    2    1         0.2432671127E-03      0.1070495103E-02

    ------------------------------------------------
       NWT REQUIRED            9 OUTER ITERATIONS 
       AND A TOTAL OF         14 INNER ITERATIONS.
    ------------------------------------------------

 NO OUTPUT CONTROL FOR STRESS PERIOD   14   TIME STEP   11
 
 SOLVING FOR HEAD 
                                                   Max.-Head-Change                         Max.-Flux-Residual
  Residual-Control   Outer-Iter.   Inner-Iter.     Column Row Layer    Maximum-Head-Change  Column Row Layer    Maximum-Flux-Residual          L2-NORM 
          0                 1           2             2    2     1       0.5746091307E-02       2    2    1         0.2992341707E+00      0.1572106657E+01
          0                 2           2             8    2     1       0.2526636615E-02       8    2    1         0.6561495595E-01      0.3840872749E+00
          0                 3           2             8    2     1       0.1135651991E-02       8    2    1         0.2949210721E-01      0.1391315512E+00
          0                 4           2             8    2     1       0.5104429252E-03       8    2    1         0.1325586878E-01      0.5980580708E-01
          0                 5           2             8    2     1       0.2294291240E-03       8    2    1         0.5958130656E-02      0.2661151460E-01
          0                 6           1             8    2     1       0.1031215275E-03       8    2    1         0.2678004370E-02      0.1190690302E-01
          0                 7           1             8    2     1       0.4634998028E-04       8    2    1         0.1203682561E-02      0.5332311848E-02
          0                 8           1             8    2     1       0.2083287405E-04       8    2    1         0.5410184534E-03      0.2388430898E-02
          0                 9           1             8    2     1       0.9363716016E-05       8    2    1         0.2431709030E-03      0.1069899922E-02

    ------------------------------------------------
       NWT REQUIRED            9 OUTER ITERATIONS 
       AND A TOTAL OF         14 INNER ITERATIONS.
    ------------------------------------------------

 NO OUTPUT CONTROL FOR STRESS PERIOD   14   TIME STEP   12
 
 SOLVING FOR HEAD 
                                                   Max.-Head-Change                         Max.-Flux-Residual
  Residual-Control   Outer-Iter.   Inner-Iter.     Column Row Layer    Maximum-Head-Change  Column Row Layer    Maximum-Flux-Residual          L2-NORM 
          0                 1           2             2    2     1       0.5728641865E-02       2    2    1         0.2983114298E+00      0.1570368004E+01
          0                 2           2             8    2     1       0.2525604782E-02       8    2    1         0.6558821035E-01      0.3838654704E+00
          0                 3           2             8    2     1       0.1135187149E-02       8    2    1         0.2948005813E-01      0.1390632545E+00
          0                 4           2             8    2     1       0.5102335170E-03       8    2    1         0.1325044068E-01      0.5977581426E-01
          0                 5           2             8    2     1       0.2293347889E-03       8    2    1         0.5955685341E-02      0.2659783237E-01
          0                 6           1             8    2     1       0.1030790316E-03       8    2    1         0.2676902793E-02      0.1190065317E-01
          0                 7           1             8    2     1       0.4633083703E-04       8    2    1         0.1203186324E-02      0.5329462212E-02
          0                 8           1             8    2     1       0.2082425072E-04       8    2    1         0.5407949135E-03      0.2387133714E-02
          0                 9           1             8    2     1       0.9359831542E-05       8    2    1         0.2430702067E-03      0.1069309588E-02

    ------------------------------------------------
       NWT REQUIRED            9 OUTER ITERATIONS 
       AND A TOTAL OF         14 INNER ITERATIONS.
    ------------------------------------------------

 NO OUTPUT CONTROL FOR STRESS PERIOD   14   TIME STEP   13
 
 SOLVING FOR HEAD 
                                                   Max.-Head-Change                         Max.-Flux-Residual
  Residual-Control   Outer-Iter.   Inner-Iter.     Column Row Layer    Maximum-Head-Change  Column Row Layer    Maximum-Flux-Residual          L2-NORM 
          0                 1           2             2    2     1       0.5711603813E-02       2    2    1         0.2974104343E+00      0.1568747587E+01
          0                 2           2             8    2     1       0.2524616709E-02       8    2    1         0.6556260286E-01      0.3836450444E+00
          0                 3           2             8    2     1       0.1134741941E-02       8    2    1         0.2946851967E-01      0.1389901968E+00
          0                 4           2             8    2     1       0.5100329172E-03       8    2    1         0.1324524166E-01      0.5974378889E-01
          0                 5           2             8    2     1       0.2292444053E-03       8    2    1         0.5953342800E-02      0.2658340585E-01
          0                 6           1             8    2     1       0.1030383080E-03       8    2    1         0.2675847321E-02      0.1189413466E-01
          0                 7           1             8    2     1       0.4631248914E-04       8    2    1         0.1202710775E-02      0.5326515263E-02
          0                 8           1             8    2     1       0.2081598405E-04       8    2    1         0.5405806552E-03      0.2385801429E-02
          0                 9           1             8    2     1       0.9356107388E-05       8    2    1         0.2429736756E-03      0.1068710291E-02

    ------------------------------------------------
       NWT REQUIRED            9 OUTER ITERATIONS 
       AND A TOTAL OF         14 INNER ITERATIONS.
    ------------------------------------------------

 NO OUTPUT CONTROL FOR STRESS PERIOD   14   TIME STEP   14
 
 SOLVING FOR HEAD 
                                                   Max.-Head-Change                         Max.-Flux-Residual
  Residual-Control   Outer-Iter.   Inner-Iter.     Column Row Layer    Maximum-Head-Change  Column Row Layer    Maximum-Flux-Residual          L2-NORM 
          0                 1           2             2    2     1       0.5695047903E-02       2    2    1         0.2965349277E+00      0.1567453584E+01
          0                 2           2             8    2     1       0.2523582114E-02       8    2    1         0.6553578237E-01      0.3834375881E+00
          0                 3           2             8    2     1       0.1134275924E-02       8    2    1         0.2945643867E-01      0.1389161796E+00
          0                 4           2             8    2     1       0.5098230107E-03       8    2    1         0.1323979998E-01      0.5971139796E-01
          0                 5           2             8    2     1       0.2291498591E-03       8    2    1         0.5950891725E-02      0.2656885535E-01
          0                 6           1             8    2     1       0.1029957234E-03       8    2    1         0.2674743310E-02      0.1188756535E-01
          0                 7           1             8    2     1       0.4629330837E-04       8    2    1         0.1202213510E-02      0.5323546173E-02
          0                 8           1             8    2     1       0.2080734521E-04       8    2    1         0.5403566846E-03      0.2384459359E-02
          0                 9           1             8    2     1       0.9352216411E-05       8    2    1         0.2428727972E-03      0.1068100983E-02

    ------------------------------------------------
       NWT REQUIRED            9 OUTER ITERATIONS 
       AND A TOTAL OF         14 INNER ITERATIONS.
    ------------------------------------------------

 NO OUTPUT CONTROL FOR STRESS PERIOD   14   TIME STEP   15
 
 SOLVING FOR HEAD 
                                                   Max.-Head-Change                         Max.-Flux-Residual
  Residual-Control   Outer-Iter.   Inner-Iter.     Column Row Layer    Maximum-Head-Change  Column Row Layer    Maximum-Flux-Residual          L2-NORM 
          0                 1           2             2    2     1       0.5678880160E-02       2    2    1         0.2956799525E+00      0.1565840898E+01
          0                 2           2             8    2     1       0.2522591454E-02       8    2    1         0.6551010551E-01      0.3831955046E+00
          0                 3           2             8    2     1       0.1133829597E-02       8    2    1         0.2944487021E-01      0.1388401506E+00
          0                 4           2             8    2     1       0.5096219290E-03       8    2    1         0.1323458802E-01      0.5967887901E-01
          0                 5           2             8    2     1       0.2290592676E-03       8    2    1         0.5948543602E-02      0.2655424727E-01
          0                 6           1             8    2     1       0.1029549105E-03       8    2    1         0.2673685439E-02      0.1188096075E-01
          0                 7           1             8    2     1       0.4627492221E-04       8    2    1         0.1201736934E-02      0.5320558498E-02
          0                 8           1             8    2     1       0.2079906229E-04       8    2    1         0.5401419876E-03      0.2383107932E-02
          0                 9           1             8    2     1       0.9348485254E-05       8    2    1         0.2427760804E-03      0.1067489521E-02

    ------------------------------------------------
       NWT REQUIRED            9 OUTER ITERATIONS 
       AND A TOTAL OF         14 INNER ITERATIONS.
    ------------------------------------------------

 NO OUTPUT CONTROL FOR STRESS PERIOD   14   TIME STEP   16
 
 SOLVING FOR HEAD 
                                                   Max.-Head-Change                         Max.-Flux-Residual
  Residual-Control   Outer-Iter.   Inner-Iter.     Column Row Layer    Maximum-Head-Change  Column Row Layer    Maximum-Flux-Residual          L2-NORM 
          0                 1           2             2    2     1       0.5663206136E-02       2    2    1         0.2948480310E+00      0.1564633893E+01
          0                 2           2             8    2     1       0.2521554131E-02       8    2    1         0.6548321550E-01      0.3829877969E+00
          0                 3           2             8    2     1       0.1133362327E-02       8    2    1         0.2943275724E-01      0.1387606021E+00
          0                 4           2             8    2     1       0.5094114460E-03       8    2    1         0.1322913164E-01      0.5964320171E-01
          0                 5           2             8    2     1       0.2289644570E-03       8    2    1         0.5946085779E-02      0.2653816033E-01
          0                 6           1             8    2     1       0.1029122046E-03       8    2    1         0.2672578330E-02      0.1187370952E-01
          0                 7           1             8    2     1       0.4625568567E-04       8    2    1         0.1201238248E-02      0.5317290623E-02
          0                 8           1             8    2     1       0.2079039794E-04       8    2    1         0.5399173655E-03      0.2381635233E-02
          0                 9           1             8    2     1       0.9344582271E-05       8    2    1         0.2426749027E-03      0.1066825919E-02

    ------------------------------------------------
       NWT REQUIRED            9 OUTER ITERATIONS 
       AND A TOTAL OF         14 INNER ITERATIONS.
    ------------------------------------------------

 NO OUTPUT CONTROL FOR STRESS PERIOD   14   TIME STEP   17
 
 SOLVING FOR HEAD 
                                                   Max.-Head-Change                         Max.-Flux-Residual
  Residual-Control   Outer-Iter.   Inner-Iter.     Column Row Layer    Maximum-Head-Change  Column Row Layer    Maximum-Flux-Residual          L2-NORM 
          0                 1           2             2    2     1       0.5647972863E-02       2    2    1         0.2940395076E+00      0.1563575882E+01
          0                 2           2             8    2     1       0.2520560743E-02       8    2    1         0.6545746815E-01      0.3828068156E+00
          0                 3           2             8    2     1       0.1132914768E-02       8    2    1         0.2942115691E-01      0.1386891662E+00
          0                 4           2             8    2     1       0.5092098070E-03       8    2    1         0.1322390527E-01      0.5961069312E-01
          0                 5           2             8    2     1       0.2288736139E-03       8    2    1         0.5943731144E-02      0.2652336746E-01
          0                 6           1             8    2     1       0.1028712781E-03       8    2    1         0.2671517513E-02      0.1186699542E-01
          0                 7           1             8    2     1       0.4623724823E-04       8    2    1         0.1200760332E-02      0.5314248087E-02
          0                 8           1             8    2     1       0.2078209150E-04       8    2    1         0.5397020573E-03      0.2380258132E-02
          0                 9           1             8    2     1       0.9340840360E-05       8    2    1         0.2425779066E-03      0.1066203166E-02

    ------------------------------------------------
       NWT REQUIRED            9 OUTER ITERATIONS 
       AND A TOTAL OF         14 INNER ITERATIONS.
    ------------------------------------------------

 NO OUTPUT CONTROL FOR STRESS PERIOD   14   TIME STEP   18
 
 SOLVING FOR HEAD 
                                                   Max.-Head-Change                         Max.-Flux-Residual
  Residual-Control   Outer-Iter.   Inner-Iter.     Column Row Layer    Maximum-Head-Change  Column Row Layer    Maximum-Flux-Residual          L2-NORM 
          0                 1           2             2    2     1       0.5633204626E-02       2    2    1         0.2932556998E+00      0.1562606091E+01
          0                 2           2             8    2     1       0.2519520768E-02       8    2    1         0.6543050832E-01      0.3826316047E+00
          0                 3           2             8    2     1       0.1132446324E-02       8    2    1         0.2940901306E-01      0.1386184819E+00
          0                 4           2             8    2     1       0.5089988061E-03       8    2    1         0.1321843525E-01      0.5957844148E-01
          0                 5           2             8    2     1       0.2287785737E-03       8    2    1         0.5941267283E-02      0.2650867217E-01
          0                 6           1             8    2     1       0.1028284704E-03       8    2    1         0.2670407736E-02      0.1186031748E-01
          0                 7           1             8    2     1       0.4621796717E-04       8    2    1         0.1200260476E-02      0.5311218179E-02
          0                 8           1             8    2     1       0.2077340765E-04       8    2    1         0.5394769211E-03      0.2378885040E-02
          0                 9           1             8    2     1       0.9336928873E-05       8    2    1         0.2424765023E-03      0.1065588102E-02

    ------------------------------------------------
       NWT REQUIRED            9 OUTER ITERATIONS 
       AND A TOTAL OF         14 INNER ITERATIONS.
    ------------------------------------------------

 NO OUTPUT CONTROL FOR STRESS PERIOD   14   TIME STEP   19
 
 SOLVING FOR HEAD 
                                                   Max.-Head-Change                         Max.-Flux-Residual
  Residual-Control   Outer-Iter.   Inner-Iter.     Column Row Layer    Maximum-Head-Change  Column Row Layer    Maximum-Flux-Residual          L2-NORM 
          0                 1           2             2    2     1       0.5618885714E-02       2    2    1         0.2924958086E+00      0.1561537942E+01
          0                 2           2             8    2     1       0.2518479542E-02       8    2    1         0.6540351679E-01      0.3824303237E+00
          0                 3           2             8    2     1       0.1131977302E-02       8    2    1         0.2939685453E-01      0.1385418778E+00
          0                 4           2             8    2     1       0.5087875375E-03       8    2    1         0.1321295844E-01      0.5954448565E-01
          0                 5           2             8    2     1       0.2286834105E-03       8    2    1         0.5938800291E-02      0.2649341409E-01
          0                 6           1             8    2     1       0.1027856059E-03       8    2    1         0.2669296511E-02      0.1185344501E-01
          0                 7           1             8    2     1       0.4619866010E-04       8    2    1         0.1199759946E-02      0.5308120003E-02
          0                 8           1             8    2     1       0.2076471104E-04       8    2    1         0.5392514663E-03      0.2377487697E-02
          0                 9           1             8    2     1       0.9333012134E-05       8    2    1         0.2423749550E-03      0.1064951210E-02

    ------------------------------------------------
       NWT REQUIRED            9 OUTER ITERATIONS 
       AND A TOTAL OF         14 INNER ITERATIONS.
    ------------------------------------------------

 NO OUTPUT CONTROL FOR STRESS PERIOD   14   TIME STEP   20
 
 SOLVING FOR HEAD 
                                                   Max.-Head-Change                         Max.-Flux-Residual
  Residual-Control   Outer-Iter.   Inner-Iter.     Column Row Layer    Maximum-Head-Change  Column Row Layer    Maximum-Flux-Residual          L2-NORM 
          0                 1           2             2    2     1       0.5605001085E-02       2    2    1         0.2917589992E+00      0.1560669660E+01
          0                 2           2             8    2     1       0.2517482205E-02       8    2    1         0.6537766768E-01      0.3822537611E+00
          0                 3           2             8    2     1       0.1131527952E-02       8    2    1         0.2938520804E-01      0.1384680048E+00
          0                 4           2             8    2     1       0.5085850859E-03       8    2    1         0.1320771112E-01      0.5951090355E-01
          0                 5           2             8    2     1       0.2285921992E-03       8    2    1         0.5936436160E-02      0.2647821492E-01
          0                 6           1             8    2     1       0.1027445129E-03       8    2    1         0.2668231393E-02      0.1184657767E-01
          0                 7           1             8    2     1       0.4618014688E-04       8    2    1         0.1199280082E-02      0.5305020845E-02
          0                 8           1             8    2     1       0.2075637058E-04       8    2    1         0.5390352790E-03      0.2376092838E-02
          0                 9           1             8    2     1       0.9329254716E-05       8    2    1         0.2422775615E-03      0.1064319671E-02

    ------------------------------------------------
       NWT REQUIRED            9 OUTER ITERATIONS 
       AND A TOTAL OF         14 INNER ITERATIONS.
    ------------------------------------------------

 NO OUTPUT CONTROL FOR STRESS PERIOD   14   TIME STEP   21
 
 SOLVING FOR HEAD 
                                                   Max.-Head-Change                         Max.-Flux-Residual
  Residual-Control   Outer-Iter.   Inner-Iter.     Column Row Layer    Maximum-Head-Change  Column Row Layer    Maximum-Flux-Residual          L2-NORM 
          0                 1           2             8    2     1       0.5598700866E-02       2    2    1         0.2910423750E+00      0.1559830732E+01
          0                 2           2             8    2     1       0.2516438398E-02       8    2    1         0.6535060694E-01      0.3820696193E+00
          0                 3           2             8    2     1       0.1131057816E-02       8    2    1         0.2937301961E-01      0.1383932120E+00
          0                 4           2             8    2     1       0.5083733379E-03       8    2    1         0.1320222141E-01      0.5947718576E-01
          0                 5           2             8    2     1       0.2284968294E-03       8    2    1         0.5933963608E-02      0.2646297298E-01
          0                 6           1             8    2     1       0.1027015598E-03       8    2    1         0.2667117780E-02      0.1183969278E-01
          0                 7           1             8    2     1       0.4616080129E-04       8    2    1         0.1198778527E-02      0.5301910347E-02
          0                 8           1             8    2     1       0.2074765821E-04       8    2    1         0.5388093949E-03      0.2374684582E-02
          0                 9           1             8    2     1       0.9325330974E-05       8    2    1         0.2421758288E-03      0.1063686292E-02

    ------------------------------------------------
       NWT REQUIRED            9 OUTER ITERATIONS 
       AND A TOTAL OF         14 INNER ITERATIONS.
    ------------------------------------------------

 NO OUTPUT CONTROL FOR STRESS PERIOD   14   TIME STEP   22
 
 SOLVING FOR HEAD 
                                                   Max.-Head-Change                         Max.-Flux-Residual
  Residual-Control   Outer-Iter.   Inner-Iter.     Column Row Layer    Maximum-Head-Change  Column Row Layer    Maximum-Flux-Residual          L2-NORM 
          0                 1           2             8    2     1       0.5596381076E-02       2    2    1         0.2903473894E+00      0.1558818264E+01
          0                 2           2             8    2     1       0.2515393562E-02       8    2    1         0.6532351903E-01      0.3818644340E+00
          0                 3           2             8    2     1       0.1130587228E-02       8    2    1         0.2936081922E-01      0.1383100795E+00
          0                 4           2             8    2     1       0.5081613908E-03       8    2    1         0.1319672643E-01      0.5943971995E-01
          0                 5           2             8    2     1       0.2284013720E-03       8    2    1         0.5931488741E-02      0.2644603064E-01
          0                 6           1             8    2     1       0.1026585682E-03       8    2    1         0.2666003149E-02      0.1183203453E-01
          0                 7           1             8    2     1       0.4614143945E-04       8    2    1         0.1198276525E-02      0.5298450027E-02
          0                 8           1             8    2     1       0.2073893809E-04       8    2    1         0.5385833049E-03      0.2373121519E-02
          0                 9           1             8    2     1       0.9321403731E-05       8    2    1         0.2420740075E-03      0.1062980349E-02

    ------------------------------------------------
       NWT REQUIRED            9 OUTER ITERATIONS 
       AND A TOTAL OF         14 INNER ITERATIONS.
    ------------------------------------------------

 NO OUTPUT CONTROL FOR STRESS PERIOD   14   TIME STEP   23
 
 SOLVING FOR HEAD 
                                                   Max.-Head-Change                         Max.-Flux-Residual
  Residual-Control   Outer-Iter.   Inner-Iter.     Column Row Layer    Maximum-Head-Change  Column Row Layer    Maximum-Flux-Residual          L2-NORM 
          0                 1           2             8    2     1       0.5594058841E-02       2    2    1         0.2896732938E+00      0.1557710732E+01
          0                 2           2             8    2     1       0.2514347544E-02       8    2    1         0.6529640218E-01      0.3816448592E+00
          0                 3           2             8    2     1       0.1130116071E-02       8    2    1         0.2934860485E-01      0.1382268478E+00
          0                 4           2             8    2     1       0.5079491710E-03       8    2    1         0.1319122474E-01      0.5940246632E-01
          0                 5           2             8    2     1       0.2283057856E-03       8    2    1         0.5929010670E-02      0.2642918230E-01
          0                 6           1             8    2     1       0.1026155148E-03       8    2    1         0.2664886986E-02      0.1182442157E-01
          0                 7           1             8    2     1       0.4612204809E-04       8    2    1         0.1197773801E-02      0.5295014353E-02
          0                 8           1             8    2     1       0.2073020422E-04       8    2    1         0.5383568805E-03      0.2371576584E-02
          0                 9           1             8    2     1       0.9317470484E-05       8    2    1         0.2419720323E-03      0.1062288392E-02

    ------------------------------------------------
       NWT REQUIRED            9 OUTER ITERATIONS 
       AND A TOTAL OF         14 INNER ITERATIONS.
    ------------------------------------------------

 NO OUTPUT CONTROL FOR STRESS PERIOD   14   TIME STEP   24
 
 SOLVING FOR HEAD 
                                                   Max.-Head-Change                         Max.-Flux-Residual
  Residual-Control   Outer-Iter.   Inner-Iter.     Column Row Layer    Maximum-Head-Change  Column Row Layer    Maximum-Flux-Residual          L2-NORM 
          0                 1           2             8    2     1       0.5591835028E-02       2    2    1         0.2890172733E+00      0.1556547112E+01
          0                 2           2             8    2     1       0.2513345787E-02       8    2    1         0.6527043426E-01      0.3814037596E+00
          0                 3           2             8    2     1       0.1129664818E-02       8    2    1         0.2933690715E-01      0.1381468409E+00
          0                 4           2             8    2     1       0.5077459015E-03       8    2    1         0.1318595539E-01      0.5936856460E-01
          0                 5           2             8    2     1       0.2282142229E-03       8    2    1         0.5926637069E-02      0.2641397453E-01
          0                 6           1             8    2     1       0.1025742715E-03       8    2    1         0.2663817806E-02      0.1181753709E-01
          0                 7           1             8    2     1       0.4610347059E-04       8    2    1         0.1197292195E-02      0.5291896083E-02
          0                 8           1             8    2     1       0.2072183650E-04       8    2    1         0.5381399470E-03      0.2370161415E-02
          0                 9           1             8    2     1       0.9313701061E-05       8    2    1         0.2418743132E-03      0.1061647482E-02

    ------------------------------------------------
       NWT REQUIRED            9 OUTER ITERATIONS 
       AND A TOTAL OF         14 INNER ITERATIONS.
    ------------------------------------------------

 NO OUTPUT CONTROL FOR STRESS PERIOD   14   TIME STEP   25
 
 SOLVING FOR HEAD 
                                                   Max.-Head-Change                         Max.-Flux-Residual
  Residual-Control   Outer-Iter.   Inner-Iter.     Column Row Layer    Maximum-Head-Change  Column Row Layer    Maximum-Flux-Residual          L2-NORM 
          0                 1           2             8    2     1       0.5589507478E-02       2    2    1         0.2883830013E+00      0.1555371100E+01
          0                 2           2             8    2     1       0.2512297365E-02       8    2    1         0.6524325530E-01      0.3811797180E+00
          0                 3           2             8    2     1       0.1129192574E-02       8    2    1         0.2932466470E-01      0.1380671172E+00
          0                 4           2             8    2     1       0.5075331911E-03       8    2    1         0.1318044100E-01      0.5933370921E-01
          0                 5           2             8    2     1       0.2281184141E-03       8    2    1         0.5924153253E-02      0.2639832212E-01
          0                 6           1             8    2     1       0.1025311179E-03       8    2    1         0.2662699053E-02      0.1181050442E-01
          0                 7           1             8    2     1       0.4608403421E-04       8    2    1         0.1196788301E-02      0.5288714249E-02
          0                 8           1             8    2     1       0.2071308236E-04       8    2    1         0.5379129921E-03      0.2368724313E-02
          0                 9           1             8    2     1       0.9309758310E-05       8    2    1         0.2417720945E-03      0.1060996008E-02

    ------------------------------------------------
       NWT REQUIRED            9 OUTER ITERATIONS 
       AND A TOTAL OF         14 INNER ITERATIONS.
    ------------------------------------------------

 NO OUTPUT CONTROL FOR STRESS PERIOD   14   TIME STEP   26
 
 SOLVING FOR HEAD 
                                                   Max.-Head-Change                         Max.-Flux-Residual
  Residual-Control   Outer-Iter.   Inner-Iter.     Column Row Layer    Maximum-Head-Change  Column Row Layer    Maximum-Flux-Residual          L2-NORM 
          0                 1           2             8    2     1       0.5587177440E-02       2    2    1         0.2877655199E+00      0.1554676282E+01
          0                 2           2             8    2     1       0.2511247905E-02       8    2    1         0.6521604767E-01      0.3809906213E+00
          0                 3           2             8    2     1       0.1128719900E-02       8    2    1         0.2931241030E-01      0.1379818546E+00
          0                 4           2             8    2     1       0.5073203026E-03       8    2    1         0.1317492166E-01      0.5929504927E-01
          0                 5           2             8    2     1       0.2280225326E-03       8    2    1         0.5921667399E-02      0.2638096640E-01
          0                 6           1             8    2     1       0.1024879352E-03       8    2    1         0.2661579466E-02      0.1180270046E-01
          0                 7           1             8    2     1       0.4606458583E-04       8    2    1         0.1196284060E-02      0.5285223794E-02
          0                 8           1             8    2     1       0.2070432347E-04       8    2    1         0.5376858952E-03      0.2367159275E-02
          0                 9           1             8    2     1       0.9305813559E-05       8    2    1         0.2416698168E-03      0.1060293051E-02

    ------------------------------------------------
       NWT REQUIRED            9 OUTER ITERATIONS 
       AND A TOTAL OF         14 INNER ITERATIONS.
    ------------------------------------------------

 NO OUTPUT CONTROL FOR STRESS PERIOD   14   TIME STEP   27
 
 SOLVING FOR HEAD 
                                                   Max.-Head-Change                         Max.-Flux-Residual
  Residual-Control   Outer-Iter.   Inner-Iter.     Column Row Layer    Maximum-Head-Change  Column Row Layer    Maximum-Flux-Residual          L2-NORM 
          0                 1           2             8    2     1       0.5584845291E-02       2    2    1         0.2871642327E+00      0.1553998051E+01
          0                 2           2             8    2     1       0.2510197621E-02       8    2    1         0.6518881601E-01      0.3807994756E+00
          0                 3           2             8    2     1       0.1128246910E-02       8    2    1         0.2930014653E-01      0.1378952956E+00
          0                 4           2             8    2     1       0.5071072968E-03       8    2    1         0.1316939875E-01      0.5925586990E-01
          0                 5           2             8    2     1       0.2279266090E-03       8    2    1         0.5919180219E-02      0.2636342339E-01
          0                 6           1             8    2     1       0.1024447378E-03       8    2    1         0.2660459407E-02      0.1179485039E-01
          0                 7           1             8    2     1       0.4604513319E-04       8    2    1         0.1195779670E-02      0.5281707629E-02
          0                 8           1             8    2     1       0.2069556359E-04       8    2    1         0.5374587596E-03      0.2365582625E-02
          0                 9           1             8    2     1       0.9301869058E-05       8    2    1         0.2415675381E-03      0.1059585535E-02

    ------------------------------------------------
       NWT REQUIRED            9 OUTER ITERATIONS 
       AND A TOTAL OF         14 INNER ITERATIONS.
    ------------------------------------------------

 NO OUTPUT CONTROL FOR STRESS PERIOD   14   TIME STEP   28
 
 SOLVING FOR HEAD 
                                                   Max.-Head-Change                         Max.-Flux-Residual
  Residual-Control   Outer-Iter.   Inner-Iter.     Column Row Layer    Maximum-Head-Change  Column Row Layer    Maximum-Flux-Residual          L2-NORM 
          0                 1           2             8    2     1       0.5582510997E-02       2    2    1         0.2865828631E+00      0.1553374810E+01
          0                 2           2             8    2     1       0.2509146231E-02       8    2    1         0.6516155862E-01      0.3806310754E+00
          0                 3           2             8    2     1       0.1127773361E-02       8    2    1         0.2928786956E-01      0.1378188299E+00
          0                 4           2             8    2     1       0.5068940118E-03       8    2    1         0.1316386918E-01      0.5922087629E-01
          0                 5           2             8    2     1       0.2278305476E-03       8    2    1         0.5916689730E-02      0.2634760860E-01
          0                 6           1             8    2     1       0.1024014736E-03       8    2    1         0.2659337719E-02      0.1178772135E-01
          0                 7           1             8    2     1       0.4602564779E-04       8    2    1         0.1195274481E-02      0.5278495394E-02
          0                 8           1             8    2     1       0.2068678794E-04       8    2    1         0.5372312347E-03      0.2364135639E-02
          0                 9           1             8    2     1       0.9297917053E-05       8    2    1         0.2414650660E-03      0.1058934259E-02

    ------------------------------------------------
       NWT REQUIRED            9 OUTER ITERATIONS 
       AND A TOTAL OF         14 INNER ITERATIONS.
    ------------------------------------------------

 NO OUTPUT CONTROL FOR STRESS PERIOD   14   TIME STEP   29
 
 SOLVING FOR HEAD 
                                                   Max.-Head-Change                         Max.-Flux-Residual
  Residual-Control   Outer-Iter.   Inner-Iter.     Column Row Layer    Maximum-Head-Change  Column Row Layer    Maximum-Flux-Residual          L2-NORM 
          0                 1           2             8    2     1       0.5580174454E-02       2    2    1         0.2860165411E+00      0.1552779908E+01
          0                 2           2             8    2     1       0.2508093910E-02       8    2    1         0.6513427536E-01      0.3804670177E+00
          0                 3           2             8    2     1       0.1127299428E-02       8    2    1         0.2927558189E-01      0.1377434890E+00
          0                 4           2             8    2     1       0.5066805701E-03       8    2    1         0.1315833521E-01      0.5918618027E-01
          0                 5           2             8    2     1       0.2277344229E-03       8    2    1         0.5914197444E-02      0.2633186991E-01
          0                 6           1             8    2     1       0.1023581836E-03       8    2    1         0.2658215305E-02      0.1178060955E-01
          0                 7           1             8    2     1       0.4600615288E-04       8    2    1         0.1194769007E-02      0.5275286759E-02
          0                 8           1             8    2     1       0.2067800854E-04       8    2    1         0.5370035959E-03      0.2362689117E-02
          0                 9           1             8    2     1       0.9293963298E-05       8    2    1         0.2413625535E-03      0.1058282221E-02

    ------------------------------------------------
       NWT REQUIRED            9 OUTER ITERATIONS 
       AND A TOTAL OF         14 INNER ITERATIONS.
    ------------------------------------------------

 NO OUTPUT CONTROL FOR STRESS PERIOD   14   TIME STEP   30



 STREAM LISTING     PERIOD     14   STEP       30

 LAYER ROW COL. STREAM  RCH.  FLOW INTO     FLOW TO   FLOW OUT OF   OVRLND.     DIRECT     STREAM       STREAM     STREAM     STREAM   STREAMBED  STREAMBED
                SEG.NO.  NO.  STRM. RCH.    AQUIFER    STRM. RCH.    RUNOFF     PRECIP       ET          HEAD       DEPTH      WIDTH   CONDCTNC.   GRADIENT

   1    1    1     1     1    1.0500E+01  1.5271E-01   1.0347E+01  0.000E+00  0.000E+00  0.000E+00  1.09396E+03  9.109E-01  8.677E+00  3.905E-02  1.304E+00
   1    2    2     1     2    1.0347E+01  2.3504E-01   1.0112E+01  0.000E+00  0.000E+00  0.000E+00  1.08896E+03  9.059E-01  8.597E+00  6.018E-02  1.302E+00
   1    3    3     1     3    1.0112E+01  1.9904E-01   9.9132E+00  0.000E+00  0.000E+00  0.000E+00  1.08332E+03  9.003E-01  8.505E+00  5.103E-02  1.300E+00
   1    3    4     1     4    9.9132E+00  1.8195E-01   9.7313E+00  0.000E+00  0.000E+00  0.000E+00  1.07830E+03  8.947E-01  8.417E+00  4.672E-02  1.298E+00
   1    4    5     2     1    7.7313E+00  0.0000E+00   7.7313E+00  0.000E+00  0.000E+00  0.000E+00  1.07253E+03  5.972E-01  1.200E+01  0.000E+00  1.199E+00
   1    5    6     2     2    7.7313E+00  0.0000E+00   7.7313E+00  0.000E+00  0.000E+00  0.000E+00  1.06711E+03  5.972E-01  1.200E+01  0.000E+00  1.199E+00
   1    6    6     2     3    7.7313E+00  0.0000E+00   7.7313E+00  0.000E+00  0.000E+00  0.000E+00  1.06239E+03  5.972E-01  1.200E+01  0.000E+00  1.199E+00
   1    7    6     2     4    7.7313E+00  0.0000E+00   7.7313E+00  0.000E+00  0.000E+00  0.000E+00  1.05767E+03  5.972E-01  1.200E+01  0.000E+00  1.199E+00
   1    8    6     2     5    7.7313E+00  0.0000E+00   7.7313E+00  0.000E+00  0.000E+00  0.000E+00  1.05296E+03  5.972E-01  1.200E+01  0.000E+00  1.199E+00
   1    3    5     3     1    2.0000E+00  2.8252E-01   1.7175E+00  0.000E+00  0.000E+00  0.000E+00  1.07555E+03  1.909E+00  9.636E+00  7.227E-02  1.955E+00
   1    3    6     3     2    1.7175E+00  2.4905E-01   1.4684E+00  0.000E+00  0.000E+00  0.000E+00  1.07264E+03  1.727E+00  8.909E+00  6.682E-02  1.864E+00
   1    3    7     3     3    1.4684E+00  1.9718E-01   1.2712E+00  0.000E+00  0.000E+00  0.000E+00  1.06987E+03  1.555E+00  8.218E+00  5.547E-02  1.777E+00
   1    4    8     3     4    1.2712E+00  2.2567E-01   1.0456E+00  0.000E+00  0.000E+00  0.000E+00  1.06682E+03  1.364E+00  7.455E+00  6.709E-02  1.682E+00
   1    5    8     3     5    1.0456E+00  1.5790E-01   8.8768E-01  0.000E+00  0.000E+00  0.000E+00  1.06362E+03  1.164E+00  6.655E+00  4.991E-02  1.582E+00
   1    6    8     3     6    8.8768E-01  5.5980E-02   8.3170E-01  0.000E+00  0.000E+00  0.000E+00  1.06158E+03  1.036E+00  6.145E+00  1.844E-02  1.518E+00
   1    5   10     4     1    1.0000E+01  0.0000E+00   1.0000E+01  0.000E+00  0.000E+00  0.000E+00  1.07837E+03  6.385E-01  1.000E+01  0.000E+00  1.213E+00
   1    5    9     4     2    1.0000E+01  0.0000E+00   1.0000E+01  0.000E+00  0.000E+00  0.000E+00  1.07155E+03  6.385E-01  1.000E+01  0.000E+00  1.213E+00
   1    6    8     4     3    1.0000E+01  0.0000E+00   1.0000E+01  0.000E+00  0.000E+00  0.000E+00  1.06382E+03  6.385E-01  1.000E+01  0.000E+00  1.213E+00
   1    6    8     5     1    1.0832E+01  2.3262E-01   1.0599E+01  0.000E+00  0.000E+00  0.000E+00  1.05869E+03  6.881E-01  1.577E+01  6.307E-02  1.229E+00
   1    7    7     5     2    1.0599E+01  2.8607E-01   1.0313E+01  0.000E+00  0.000E+00  0.000E+00  1.05418E+03  6.822E-01  1.554E+01  7.769E-02  1.227E+00
   1    8    7     5     3    1.0313E+01  1.9716E-01   1.0116E+01  0.000E+00  0.000E+00  0.000E+00  1.04993E+03  6.766E-01  1.532E+01  5.363E-02  1.226E+00
   1    8    6     5     4    1.0116E+01  1.3929E-01   9.9766E+00  0.000E+00  0.000E+00  0.000E+00  1.04692E+03  6.727E-01  1.517E+01  3.792E-02  1.224E+00
   1    9    6     6     1    1.7708E+01  0.0000E+00   1.7708E+01  0.000E+00  0.000E+00  0.000E+00  1.04372E+03  9.928E-01  1.200E+01  0.000E+00  1.331E+00
   1   10    7     6     2    1.7708E+01  0.0000E+00   1.7708E+01  0.000E+00  0.000E+00  0.000E+00  1.03917E+03  9.928E-01  1.200E+01  0.000E+00  1.331E+00
   1   11    7     6     3    1.7708E+01  0.0000E+00   1.7708E+01  0.000E+00  0.000E+00  0.000E+00  1.03463E+03  9.928E-01  1.200E+01  0.000E+00  1.331E+00
   1   12    7     6     4    1.7708E+01  0.0000E+00   1.7708E+01  0.000E+00  0.000E+00  0.000E+00  1.03008E+03  9.928E-01  1.200E+01  0.000E+00  1.331E+00
   1   13    7     6     5    1.7708E+01  0.0000E+00   1.7708E+01  0.000E+00  0.000E+00  0.000E+00  1.02690E+03  9.928E-01  1.200E+01  0.000E+00  1.017E-01
   1   14    9     7     1    1.5000E+02  1.2652E+00   1.4873E+02  0.000E+00  0.000E+00  0.000E+00  1.03987E+03  2.288E+00  5.530E+01  5.593E-01  7.540E-01
   1   13    8     7     2    1.4873E+02  1.9102E+00   1.4682E+02  0.000E+00  0.000E+00  0.000E+00  1.03478E+03  2.279E+00  5.526E+01  6.148E-01  1.036E+00
   1   13    7     7     3    1.4682E+02  1.7268E+00   1.4510E+02  0.000E+00  0.000E+00  0.000E+00  1.02969E+03  2.270E+00  5.521E+01  5.584E-01  1.031E+00
   1   13    6     8     1    1.6281E+02  1.1141E+00   1.6169E+02  0.000E+00  0.000E+00  0.000E+00  1.02478E+03  2.901E+00  4.206E+01  4.286E-01  8.663E-01
   1   13    5     8     2    1.6169E+02  3.3468E-01   1.6136E+02  0.000E+00  0.000E+00  0.000E+00  1.01852E+03  2.896E+00  4.199E+01  4.279E-01  2.607E-01
   1   13    4     8     3    1.6136E+02 -2.0435E+00   1.6340E+02  0.000E+00  0.000E+00  0.000E+00  1.01228E+03  2.902E+00  4.208E+01  4.288E+00 -1.589E-01
   1   13    3     8     4    1.6340E+02 -3.6002E+00   1.6700E+02  0.000E+00  0.000E+00  0.000E+00  1.00605E+03  2.921E+00  4.235E+01  4.316E+00 -2.781E-01
   1   13    2     8     5    1.6700E+02 -2.6536E+00   1.6965E+02  0.000E+00  0.000E+00  0.000E+00  9.99816E+02  2.941E+00  4.265E+01  4.346E+00 -2.035E-01
   1   13    1     8     6    1.6965E+02 -2.0224E+00   1.7168E+02  0.000E+00  0.000E+00  0.000E+00  9.94832E+02  2.957E+00  4.287E+01  2.621E+00 -2.572E-01
   1    6    8     9     1    0.0000E+00  0.0000E+00   0.0000E+00  0.000E+00  0.000E+00  0.000E+00  1.07850E+03  0.000E+00  4.000E+00  0.000E+00  1.000E+00





UNSATURATED ZONE PACKAGE VOLUMETRIC BUDGET FOR  TIME STEP    30 STRESS PERIOD   14
  ------------------------------------------------------------------------------



     CUMULATIVE VOLUMES      L**3       RATES FOR THIS TIME STEP      L**3/T
     ------------------                 ------------------------

           IN:                                      IN:
           ---                                      ---
        INFILTRATION =    49214654.2819          INFILTRATION =           0.8475

          OUT:                                     OUT:
          ----                                     ----
              UZF ET =   572507702.1700                UZF ET =           0.2900
        UZF RECHARGE =   868790960.7842          UZF RECHARGE =          22.7225

            IN - OUT = -1392084008.6723              IN - OUT =         -22.1650

          STORAGE:                                 STORAGE:
          --------                                 --------
      STORAGE CHANGE = -1392075329.0919        STORAGE CHANGE =         -22.1650

 PERCENT DISCREPANCY IS DIFFERENCE BETWEEN IN-OUT MINUS CHANGE IN STORAGE
 DIVIDED BY THE AVERAGE OF IN AND OUT TIMES 100

 PERCENT DISCREPANCY =          -0.00     PERCENT DISCREPANCY =           0.00






1
  VOLUMETRIC BUDGET FOR ENTIRE MODEL AT END OF TIME STEP   30, STRESS PERIOD  14
  ------------------------------------------------------------------------------

     CUMULATIVE VOLUMES      L**3       RATES FOR THIS TIME STEP      L**3/T
     ------------------                 ------------------------

           IN:                                      IN:
           ---                                      ---
             STORAGE =    28417656.0000               STORAGE =       3.3573E-02
       CONSTANT HEAD =           0.0000         CONSTANT HEAD =           0.0000
               WELLS =           0.0000                 WELLS =           0.0000
     HEAD DEP BOUNDS =    10458125.0000       HEAD DEP BOUNDS =           0.2810
      STREAM LEAKAGE =   369093568.0000        STREAM LEAKAGE =           9.1431
        UZF RECHARGE =   868790720.0000          UZF RECHARGE =          22.7225
               GW ET =           0.0000                 GW ET =           0.0000
     SURFACE LEAKAGE =           0.0000       SURFACE LEAKAGE =           0.0000

            TOTAL IN =  1276760064.0000              TOTAL IN =          32.1801

          OUT:                                     OUT:
          ----                                     ----
             STORAGE =   889549120.0000               STORAGE =          21.5682
       CONSTANT HEAD =           0.0000         CONSTANT HEAD =           0.0000
               WELLS =     1016027.8750                 WELLS =           0.0000
     HEAD DEP BOUNDS =    10545173.0000       HEAD DEP BOUNDS =           0.2889
      STREAM LEAKAGE =   304567552.0000        STREAM LEAKAGE =          10.3197
        UZF RECHARGE =           0.0000          UZF RECHARGE =           0.0000
               GW ET =    70996352.0000                 GW ET =       1.7740E-10
     SURFACE LEAKAGE =           0.0000       SURFACE LEAKAGE =           0.0000

           TOTAL OUT =  1276674176.0000             TOTAL OUT =          32.1768

            IN - OUT =       85888.0000              IN - OUT =       3.2959E-03

 PERCENT DISCREPANCY =           0.01     PERCENT DISCREPANCY =           0.01






         TIME SUMMARY AT END OF TIME STEP   30 IN STRESS PERIOD   14
                    SECONDS     MINUTES      HOURS       DAYS        YEARS
                    -----------------------------------------------------------
   TIME STEP LENGTH  87600.      1460.0      24.333      1.0139     2.77588E-03
 STRESS PERIOD TIME 2.62800E+06  43800.      730.00      30.417     8.32763E-02
         TOTAL TIME 3.67920E+07 6.13200E+05  10220.      425.83      1.1659    
1
1
                            STRESS PERIOD NO.   15, LENGTH =   2628000.    
                            -----------------------------------------------

                              NUMBER OF TIME STEPS =    30

                               MULTIPLIER FOR DELT =     1.000

                            INITIAL TIME STEP SIZE =   87600.00    

 WELL NO.  LAYER   ROW   COL   STRESS RATE         
 --------------------------------------------------
      1      1      6      4       0.000    
      2      1      6      7       0.000    
      3      1      7      4       0.000    
      4      1      7      5       0.000    
      5      1      8      4       0.000    
      6      1      8      5       0.000    
      7      1      9      4       0.000    
      8      1      9      5       0.000    
      9      1     10      4       0.000    
     10      1     10      5       0.000    

     10 WELLS

 REUSING NON-PARAMETER GHB CELLS FROM LAST STRESS PERIOD

      2 GHB CELLS

 REUSING STREAM SEGMENT DATA FROM LAST STRESS PERIOD



            AREAL INFILTRATION RATE
 READING ON UNIT   19 WITH FORMAT: (10F4.0)            

            1           2           3           4           5           6           7           8           9          10
 ........................................................................................................................
   1   1.0000E-10  2.0000E-10   0.000       0.000       0.000       0.000       0.000       0.000       0.000       0.000    
   2   2.0000E-10  1.0000E-10  2.0000E-10   0.000       0.000      8.0000E-10  8.0000E-10  5.0000E-10   0.000       0.000    
   3    0.000      5.0000E-10  1.0000E-10  1.0000E-10  8.0000E-10  8.0000E-10  5.0000E-10  5.0000E-10   0.000       0.000    
   4   8.0000E-10  5.0000E-10  1.0000E-10  1.0000E-10  1.0000E-10  1.0000E-10  1.0000E-10  1.0000E-10  2.0000E-10   0.000    
   5   8.0000E-10  5.0000E-10  1.0000E-10  1.0000E-10  1.0000E-10  1.0000E-10  1.0000E-10  1.0000E-10  1.0000E-10  1.0000E-10
   6   8.0000E-10  5.0000E-10  5.0000E-10  2.0000E-10  2.0000E-10  1.0000E-10  1.0000E-10  1.0000E-10  1.0000E-10  5.0000E-10
   7   8.0000E-10  5.0000E-10  5.0000E-10  2.0000E-10  2.0000E-10  1.0000E-10  1.0000E-10  2.0000E-10  2.0000E-10   0.000    
   8    0.000      5.0000E-10  5.0000E-10  2.0000E-10  2.0000E-10  1.0000E-10  1.0000E-10  2.0000E-10  5.0000E-10   0.000    
   9    0.000      5.0000E-10  5.0000E-10  2.0000E-10  2.0000E-10  1.0000E-10  1.0000E-10  2.0000E-10  5.0000E-10   0.000    
  10    0.000      5.0000E-10  5.0000E-10  2.0000E-10  2.0000E-10  1.0000E-10  1.0000E-10  2.0000E-10  5.0000E-10  8.0000E-10
  11    0.000      1.0000E-10  1.0000E-10  1.0000E-10  1.0000E-10  1.0000E-10  1.0000E-10  2.0000E-10  5.0000E-10   0.000    
  12   1.0000E-10  1.0000E-10  1.0000E-10  1.0000E-10  1.0000E-10  1.0000E-10  1.0000E-10  1.0000E-10  2.0000E-10   0.000    
  13   1.0000E-10  1.0000E-10  2.0000E-10  2.0000E-10  2.0000E-10  2.0000E-10  2.0000E-10  1.0000E-10  1.0000E-10   0.000    
  14    0.000      2.0000E-10  5.0000E-10  5.0000E-10  5.0000E-10  5.0000E-10  5.0000E-10  2.0000E-10  1.0000E-10   0.000    
  15    0.000       0.000      8.0000E-10  8.0000E-10  8.0000E-10  8.0000E-10   0.000       0.000       0.000       0.000    

                  ET RATE =  1.000000E-10

 USING ET EXTINCTION DEPTH FROM PREVIOUS STRESS PERIOD. CURRENT PERIOD IS:      15

 USING EXTINCTION WATER CONTENT FROM PREVIOUS STRESS PERIOD. CURRENT PERIOD IS:      15
 
 SOLVING FOR HEAD 
                                                   Max.-Head-Change                         Max.-Flux-Residual
  Residual-Control   Outer-Iter.   Inner-Iter.     Column Row Layer    Maximum-Head-Change  Column Row Layer    Maximum-Flux-Residual          L2-NORM 
          0                 1           2             2    2     1       0.7503579061E-02       2    2    1         0.3913423779E+00      0.1680443471E+01
          0                 2           2             8    2     1       0.2507040681E-02       2    2    1         0.6793726418E-01      0.3914775329E+00
          0                 3           2             8    2     1       0.1126825096E-02       8    2    1         0.2926328365E-01      0.1385150608E+00
          0                 4           2             8    2     1       0.5064669527E-03       8    2    1         0.1315279659E-01      0.5923513642E-01
          0                 5           2             8    2     1       0.2276382204E-03       8    2    1         0.5911703108E-02      0.2633361018E-01
          0                 6           1             8    2     1       0.1023148599E-03       8    2    1         0.2657091991E-02      0.1177986314E-01
          0                 7           1             8    2     1       0.4598664247E-04       8    2    1         0.1194263132E-02      0.5274774326E-02
          0                 8           1             8    2     1       0.2066922264E-04       8    2    1         0.5367757858E-03      0.2362416049E-02
          0                 9           1             8    2     1       0.9290006541E-05       8    2    1         0.2412599603E-03      0.1058143563E-02

    ------------------------------------------------
       NWT REQUIRED            9 OUTER ITERATIONS 
       AND A TOTAL OF         14 INNER ITERATIONS.
    ------------------------------------------------

 NO OUTPUT CONTROL FOR STRESS PERIOD   15   TIME STEP    1
 
 SOLVING FOR HEAD 
                                                   Max.-Head-Change                         Max.-Flux-Residual
  Residual-Control   Outer-Iter.   Inner-Iter.     Column Row Layer    Maximum-Head-Change  Column Row Layer    Maximum-Flux-Residual          L2-NORM 
          0                 1           2             2    2     1       0.7622076112E-02       2    2    1         0.3975430932E+00      0.1687744508E+01
          0                 2           2             8    2     1       0.2505986474E-02       2    2    1         0.6900807029E-01      0.3921953155E+00
          0                 3           2             8    2     1       0.1126350309E-02       8    2    1         0.2925097395E-01      0.1385488818E+00
          0                 4           2             8    2     1       0.5062531248E-03       8    2    1         0.1314725264E-01      0.5922666925E-01
          0                 5           2             8    2     1       0.2275419212E-03       8    2    1         0.5909206307E-02      0.2632792107E-01
          0                 6           1             8    2     1       0.1022714908E-03       8    2    1         0.2655967530E-02      0.1177707153E-01
          0                 7           1             8    2     1       0.4596711105E-04       8    2    1         0.1193756726E-02      0.5273457621E-02
          0                 8           1             8    2     1       0.2066042699E-04       8    2    1         0.5365477307E-03      0.2361800521E-02
          0                 9           1             8    2     1       0.9286045782E-05       8    2    1         0.2411572605E-03      0.1057858786E-02

    ------------------------------------------------
       NWT REQUIRED            9 OUTER ITERATIONS 
       AND A TOTAL OF         14 INNER ITERATIONS.
    ------------------------------------------------

 NO OUTPUT CONTROL FOR STRESS PERIOD   15   TIME STEP    2
 
 SOLVING FOR HEAD 
                                                   Max.-Head-Change                         Max.-Flux-Residual
  Residual-Control   Outer-Iter.   Inner-Iter.     Column Row Layer    Maximum-Head-Change  Column Row Layer    Maximum-Flux-Residual          L2-NORM 
          0                 1           2             2    2     1       0.7582379111E-02       2    2    1         0.3954403716E+00      0.1679178908E+01
          0                 2           2             8    2     1       0.2504931444E-02       2    2    1         0.6865189295E-01      0.3916880546E+00
          0                 3           2             8    2     1       0.1125875187E-02       8    2    1         0.2923865479E-01      0.1384825389E+00
          0                 4           2             8    2     1       0.5060391610E-03       8    2    1         0.1314170485E-01      0.5920067208E-01
          0                 5           2             8    2     1       0.2274455671E-03       8    2    1         0.5906707949E-02      0.2631572434E-01
          0                 6           1             8    2     1       0.1022281008E-03       8    2    1         0.2654842453E-02      0.1177129050E-01
          0                 7           1             8    2     1       0.4594757187E-04       8    2    1         0.1193250078E-02      0.5270726462E-02
          0                 8           1             8    2     1       0.2065162808E-04       8    2    1         0.5363195753E-03      0.2360518099E-02
          0                 9           1             8    2     1       0.9282083523E-05       8    2    1         0.2410545188E-03      0.1057261978E-02

    ------------------------------------------------
       NWT REQUIRED            9 OUTER ITERATIONS 
       AND A TOTAL OF         14 INNER ITERATIONS.
    ------------------------------------------------

 NO OUTPUT CONTROL FOR STRESS PERIOD   15   TIME STEP    3
 
 SOLVING FOR HEAD 
                                                   Max.-Head-Change                         Max.-Flux-Residual
  Residual-Control   Outer-Iter.   Inner-Iter.     Column Row Layer    Maximum-Head-Change  Column Row Layer    Maximum-Flux-Residual          L2-NORM 
          0                 1           2             2    2     1       0.7543702309E-02       2    2    1         0.3933918844E+00      0.1671097943E+01
          0                 2           2             8    2     1       0.2503875319E-02       2    2    1         0.6830484966E-01      0.3911300480E+00
          0                 3           2             8    2     1       0.1125399509E-02       8    2    1         0.2922632254E-01      0.1383999027E+00
          0                 4           2             8    2     1       0.5058249192E-03       8    2    1         0.1313615043E-01      0.5917064259E-01
          0                 5           2             8    2     1       0.2273490761E-03       8    2    1         0.5904206292E-02      0.2630253666E-01
          0                 6           1             8    2     1       0.1021846428E-03       8    2    1         0.2653715744E-02      0.1176535023E-01
          0                 7           1             8    2     1       0.4592799993E-04       8    2    1         0.1192742637E-02      0.5268042177E-02
          0                 8           1             8    2     1       0.2064281342E-04       8    2    1         0.5360910365E-03      0.2359302206E-02
          0                 9           1             8    2     1       0.9278113511E-05       8    2    1         0.2409515928E-03      0.1056706093E-02

    ------------------------------------------------
       NWT REQUIRED            9 OUTER ITERATIONS 
       AND A TOTAL OF         14 INNER ITERATIONS.
    ------------------------------------------------

 NO OUTPUT CONTROL FOR STRESS PERIOD   15   TIME STEP    4
 
 SOLVING FOR HEAD 
                                                   Max.-Head-Change                         Max.-Flux-Residual
  Residual-Control   Outer-Iter.   Inner-Iter.     Column Row Layer    Maximum-Head-Change  Column Row Layer    Maximum-Flux-Residual          L2-NORM 
          0                 1           2             2    2     1       0.7506094304E-02       2    2    1         0.3914001542E+00      0.1664413138E+01
          0                 2           2             8    2     1       0.2502773203E-02       2    2    1         0.6796738169E-01      0.3907219488E+00
          0                 3           2             8    2     1       0.1124903288E-02       8    2    1         0.2921345409E-01      0.1383546014E+00
          0                 4           2             8    2     1       0.5056015017E-03       8    2    1         0.1313035650E-01      0.5915545193E-01
          0                 5           2             8    2     1       0.2272484854E-03       8    2    1         0.5901597639E-02      0.2629573841E-01
          0                 6           1             8    2     1       0.1021393544E-03       8    2    1         0.2652541249E-02      0.1176219833E-01
          0                 7           1             8    2     1       0.4590760988E-04       8    2    1         0.1192213849E-02      0.5266577646E-02
          0                 8           1             8    2     1       0.2063363384E-04       8    2    1         0.5358529697E-03      0.2358622870E-02
          0                 9           1             8    2     1       0.9273981176E-05       8    2    1         0.2408444123E-03      0.1056392171E-02

    ------------------------------------------------
       NWT REQUIRED            9 OUTER ITERATIONS 
       AND A TOTAL OF         14 INNER ITERATIONS.
    ------------------------------------------------

 NO OUTPUT CONTROL FOR STRESS PERIOD   15   TIME STEP    5
 
 SOLVING FOR HEAD 
                                                   Max.-Head-Change                         Max.-Flux-Residual
  Residual-Control   Outer-Iter.   Inner-Iter.     Column Row Layer    Maximum-Head-Change  Column Row Layer    Maximum-Flux-Residual          L2-NORM 
          0                 1           2             2    2     1       0.7469480647E-02       2    2    1         0.3894612492E+00      0.1658740240E+01
          0                 2           2             8    2     1       0.2501715762E-02       2    2    1         0.6763881985E-01      0.3903758619E+00
          0                 3           2             8    2     1       0.1124427084E-02       8    2    1         0.2920110680E-01      0.1383115797E+00
          0                 4           2             8    2     1       0.5053870523E-03       8    2    1         0.1312479607E-01      0.5913975674E-01
          0                 5           2             8    2     1       0.2271519138E-03       8    2    1         0.5899093619E-02      0.2628859737E-01
          0                 6           1             8    2     1       0.1020958664E-03       8    2    1         0.2651413628E-02      0.1175888224E-01
          0                 7           1             8    2     1       0.4588802669E-04       8    2    1         0.1191706059E-02      0.5265038797E-02
          0                 8           1             8    2     1       0.2062481492E-04       8    2    1         0.5356243009E-03      0.2357910526E-02
          0                 9           1             8    2     1       0.9270009913E-05       8    2    1         0.2407414444E-03      0.1056062808E-02

    ------------------------------------------------
       NWT REQUIRED            9 OUTER ITERATIONS 
       AND A TOTAL OF         14 INNER ITERATIONS.
    ------------------------------------------------

 NO OUTPUT CONTROL FOR STRESS PERIOD   15   TIME STEP    6
 
 SOLVING FOR HEAD 
                                                   Max.-Head-Change                         Max.-Flux-Residual
  Residual-Control   Outer-Iter.   Inner-Iter.     Column Row Layer    Maximum-Head-Change  Column Row Layer    Maximum-Flux-Residual          L2-NORM 
          0                 1           2             2    2     1       0.7433829642E-02       2    2    1         0.3875734748E+00      0.1653608004E+01
          0                 2           2             8    2     1       0.2500657341E-02       2    2    1         0.6731888130E-01      0.3900383739E+00
          0                 3           2             8    2     1       0.1123950402E-02       8    2    1         0.2918874788E-01      0.1382671241E+00
          0                 4           2             8    2     1       0.5051723720E-03       8    2    1         0.1311923000E-01      0.5912369131E-01
          0                 5           2             8    2     1       0.2270552308E-03       8    2    1         0.5896586866E-02      0.2628128968E-01
          0                 6           1             8    2     1       0.1020523250E-03       8    2    1         0.2650284696E-02      0.1175547572E-01
          0                 7           1             8    2     1       0.4586841823E-04       8    2    1         0.1191197647E-02      0.5263451833E-02
          0                 8           1             8    2     1       0.2061598450E-04       8    2    1         0.5353953416E-03      0.2357173760E-02
          0                 9           1             8    2     1       0.9266033147E-05       8    2    1         0.2406383336E-03      0.1055721808E-02

    ------------------------------------------------
       NWT REQUIRED            9 OUTER ITERATIONS 
       AND A TOTAL OF         14 INNER ITERATIONS.
    ------------------------------------------------

 NO OUTPUT CONTROL FOR STRESS PERIOD   15   TIME STEP    7
 
 SOLVING FOR HEAD 
                                                   Max.-Head-Change                         Max.-Flux-Residual
  Residual-Control   Outer-Iter.   Inner-Iter.     Column Row Layer    Maximum-Head-Change  Column Row Layer    Maximum-Flux-Residual          L2-NORM 
          0                 1           2             2    2     1       0.7399110548E-02       2    2    1         0.3857352216E+00      0.1649097397E+01
          0                 2           2             8    2     1       0.2499598292E-02       2    2    1         0.6700728837E-01      0.3897247649E+00
          0                 3           2             8    2     1       0.1123473520E-02       8    2    1         0.2917638204E-01      0.1382171223E+00
          0                 4           2             8    2     1       0.5049576381E-03       8    2    1         0.1311366176E-01      0.5910467800E-01
          0                 5           2             8    2     1       0.2269585404E-03       8    2    1         0.5894079571E-02      0.2627278912E-01
          0                 6           1             8    2     1       0.1020087877E-03       8    2    1         0.2649155711E-02      0.1175159303E-01
          0                 7           1             8    2     1       0.4584881453E-04       8    2    1         0.1190689293E-02      0.5261672343E-02
          0                 8           1             8    2     1       0.2060715809E-04       8    2    1         0.5351664472E-03      0.2356359316E-02
          0                 9           1             8    2     1       0.9262059133E-05       8    2    1         0.2405352665E-03      0.1055351357E-02

    ------------------------------------------------
       NWT REQUIRED            9 OUTER ITERATIONS 
       AND A TOTAL OF         14 INNER ITERATIONS.
    ------------------------------------------------

 NO OUTPUT CONTROL FOR STRESS PERIOD   15   TIME STEP    8
 
 SOLVING FOR HEAD 
                                                   Max.-Head-Change                         Max.-Flux-Residual
  Residual-Control   Outer-Iter.   Inner-Iter.     Column Row Layer    Maximum-Head-Change  Column Row Layer    Maximum-Flux-Residual          L2-NORM 
          0                 1           2             2    2     1       0.7365334834E-02       2    2    1         0.3839470301E+00      0.1645259609E+01
          0                 2           2             8    2     1       0.2498493042E-02       2    2    1         0.6670415063E-01      0.3894452796E+00
          0                 3           2             8    2     1       0.1122975855E-02       8    2    1         0.2916347683E-01      0.1381639498E+00
          0                 4           2             8    2     1       0.5047335559E-03       8    2    1         0.1310785090E-01      0.5908309301E-01
          0                 5           2             8    2     1       0.2268576446E-03       8    2    1         0.5891463129E-02      0.2626305579E-01
          0                 6           1             8    2     1       0.1019633588E-03       8    2    1         0.2647977629E-02      0.1174715827E-01
          0                 7           1             8    2     1       0.4582836020E-04       8    2    1         0.1190158856E-02      0.5259649815E-02
          0                 8           1             8    2     1       0.2059794825E-04       8    2    1         0.5349276166E-03      0.2355435451E-02
          0                 9           1             8    2     1       0.9257912542E-05       8    2    1         0.2404277409E-03      0.1054927435E-02

    ------------------------------------------------
       NWT REQUIRED            9 OUTER ITERATIONS 
       AND A TOTAL OF         14 INNER ITERATIONS.
    ------------------------------------------------

 NO OUTPUT CONTROL FOR STRESS PERIOD   15   TIME STEP    9
 
 SOLVING FOR HEAD 
                                                   Max.-Head-Change                         Max.-Flux-Residual
  Residual-Control   Outer-Iter.   Inner-Iter.     Column Row Layer    Maximum-Head-Change  Column Row Layer    Maximum-Flux-Residual          L2-NORM 
          0                 1           2             2    2     1       0.7332432620E-02       2    2    1         0.3822052339E+00      0.1641855130E+01
          0                 2           2             8    2     1       0.2497432663E-02       2    2    1         0.6640883761E-01      0.3891922791E+00
          0                 3           2             8    2     1       0.1122498368E-02       8    2    1         0.2915109542E-01      0.1381154405E+00
          0                 4           2             8    2     1       0.5045185464E-03       8    2    1         0.1310227558E-01      0.5906338097E-01
          0                 5           2             8    2     1       0.2267608286E-03       8    2    1         0.5888952613E-02      0.2625411924E-01
          0                 6           1             8    2     1       0.1019197647E-03       8    2    1         0.2646847183E-02      0.1174306367E-01
          0                 7           1             8    2     1       0.4580873073E-04       8    2    1         0.1189649835E-02      0.5257777937E-02
          0                 8           1             8    2     1       0.2058910982E-04       8    2    1         0.5346984189E-03      0.2354576417E-02
          0                 9           1             8    2     1       0.9253932775E-05       8    2    1         0.2403245364E-03      0.1054534471E-02

    ------------------------------------------------
       NWT REQUIRED            9 OUTER ITERATIONS 
       AND A TOTAL OF         14 INNER ITERATIONS.
    ------------------------------------------------

 NO OUTPUT CONTROL FOR STRESS PERIOD   15   TIME STEP   10
 
 SOLVING FOR HEAD 
                                                   Max.-Head-Change                         Max.-Flux-Residual
  Residual-Control   Outer-Iter.   Inner-Iter.     Column Row Layer    Maximum-Head-Change  Column Row Layer    Maximum-Flux-Residual          L2-NORM 
          0                 1           2             2    2     1       0.7300417491E-02       2    2    1         0.3805105123E+00      0.1638690947E+01
          0                 2           2             8    2     1       0.2496371551E-02       2    2    1         0.6612147524E-01      0.3889365971E+00
          0                 3           2             8    2     1       0.1122020540E-02       8    2    1         0.2913870540E-01      0.1380659220E+00
          0                 4           2             8    2     1       0.5043033796E-03       8    2    1         0.1309669626E-01      0.5904367729E-01
          0                 5           2             8    2     1       0.2266639396E-03       8    2    1         0.5886440236E-02      0.2624523010E-01
          0                 6           1             8    2     1       0.1018761366E-03       8    2    1         0.2645715870E-02      0.1173899356E-01
          0                 7           1             8    2     1       0.4578908551E-04       8    2    1         0.1189140417E-02      0.5255908294E-02
          0                 8           1             8    2     1       0.2058026415E-04       8    2    1         0.5344690365E-03      0.2353722558E-02
          0                 9           1             8    2     1       0.9249950007E-05       8    2    1         0.2402212507E-03      0.1054143988E-02

    ------------------------------------------------
       NWT REQUIRED            9 OUTER ITERATIONS 
       AND A TOTAL OF         14 INNER ITERATIONS.
    ------------------------------------------------

 NO OUTPUT CONTROL FOR STRESS PERIOD   15   TIME STEP   11
 
 SOLVING FOR HEAD 
                                                   Max.-Head-Change                         Max.-Flux-Residual
  Residual-Control   Outer-Iter.   Inner-Iter.     Column Row Layer    Maximum-Head-Change  Column Row Layer    Maximum-Flux-Residual          L2-NORM 
          0                 1           2             2    2     1       0.7269221113E-02       2    2    1         0.3788592820E+00      0.1635721974E+01
          0                 2           2             8    2     1       0.2495264345E-02       2    2    1         0.6584144669E-01      0.3886807940E+00
          0                 3           2             8    2     1       0.1121522023E-02       8    2    1         0.2912577748E-01      0.1380147801E+00
          0                 4           2             8    2     1       0.5040789267E-03       8    2    1         0.1309087552E-01      0.5902319153E-01
          0                 5           2             8    2     1       0.2265628833E-03       8    2    1         0.5883819501E-02      0.2623597715E-01
          0                 6           1             8    2     1       0.1018306376E-03       8    2    1         0.2644535921E-02      0.1173475966E-01
          0                 7           1             8    2     1       0.4576860066E-04       8    2    1         0.1188609168E-02      0.5253973322E-02
          0                 8           1             8    2     1       0.2057104155E-04       8    2    1         0.5342298595E-03      0.2352845417E-02
          0                 9           1             8    2     1       0.9245797663E-05       8    2    1         0.2401135688E-03      0.1053738947E-02

    ------------------------------------------------
       NWT REQUIRED            9 OUTER ITERATIONS 
       AND A TOTAL OF         14 INNER ITERATIONS.
    ------------------------------------------------

 NO OUTPUT CONTROL FOR STRESS PERIOD   15   TIME STEP   12
 
 SOLVING FOR HEAD 
                                                   Max.-Head-Change                         Max.-Flux-Residual
  Residual-Control   Outer-Iter.   Inner-Iter.     Column Row Layer    Maximum-Head-Change  Column Row Layer    Maximum-Flux-Residual          L2-NORM 
          0                 1           2             2    2     1       0.7238818090E-02       2    2    1         0.3772501574E+00      0.1633066965E+01
          0                 2           2             8    2     1       0.2494202129E-02       2    2    1         0.6556852825E-01      0.3884213246E+00
          0                 3           2             8    2     1       0.1121043737E-02       8    2    1         0.2911337477E-01      0.1379478041E+00
          0                 4           2             8    2     1       0.5038635704E-03       8    2    1         0.1308529093E-01      0.5899432184E-01
          0                 5           2             8    2     1       0.2264659162E-03       8    2    1         0.5881304949E-02      0.2622274176E-01
          0                 6           1             8    2     1       0.1017869775E-03       8    2    1         0.2643403717E-02      0.1172867260E-01
          0                 7           1             8    2     1       0.4574894294E-04       8    2    1         0.1188099392E-02      0.5251177813E-02
          0                 8           1             8    2     1       0.2056219062E-04       8    2    1         0.5340003299E-03      0.2351558577E-02
          0                 9           1             8    2     1       0.9241812394E-05       8    2    1         0.2400102248E-03      0.1053156012E-02

    ------------------------------------------------
       NWT REQUIRED            9 OUTER ITERATIONS 
       AND A TOTAL OF         14 INNER ITERATIONS.
    ------------------------------------------------

 NO OUTPUT CONTROL FOR STRESS PERIOD   15   TIME STEP   13
 
 SOLVING FOR HEAD 
                                                   Max.-Head-Change                         Max.-Flux-Residual
  Residual-Control   Outer-Iter.   Inner-Iter.     Column Row Layer    Maximum-Head-Change  Column Row Layer    Maximum-Flux-Residual          L2-NORM 
          0                 1           2             2    2     1       0.7209224700E-02       2    2    1         0.3756840054E+00      0.1630507538E+01
          0                 2           2             8    2     1       0.2493093863E-02       2    2    1         0.6530286545E-01      0.3881629722E+00
          0                 3           2             8    2     1       0.1120544762E-02       8    2    1         0.2910043456E-01      0.1378895926E+00
          0                 4           2             8    2     1       0.5036389191E-03       8    2    1         0.1307946487E-01      0.5897102399E-01
          0                 5           2             8    2     1       0.2263647741E-03       8    2    1         0.5878681920E-02      0.2621229323E-01
          0                 6           1             8    2     1       0.1017414420E-03       8    2    1         0.2642222782E-02      0.1172391461E-01
          0                 7           1             8    2     1       0.4572844259E-04       8    2    1         0.1187567718E-02      0.5249010413E-02
          0                 8           1             8    2     1       0.2055296102E-04       8    2    1         0.5337609649E-03      0.2350574584E-02
          0                 9           1             8    2     1       0.9237657799E-05       8    2    1         0.2399024632E-03      0.1052706372E-02

    ------------------------------------------------
       NWT REQUIRED            9 OUTER ITERATIONS 
       AND A TOTAL OF         14 INNER ITERATIONS.
    ------------------------------------------------

 NO OUTPUT CONTROL FOR STRESS PERIOD   15   TIME STEP   14
 
 SOLVING FOR HEAD 
                                                   Max.-Head-Change                         Max.-Flux-Residual
  Residual-Control   Outer-Iter.   Inner-Iter.     Column Row Layer    Maximum-Head-Change  Column Row Layer    Maximum-Flux-Residual          L2-NORM 
          0                 1           2             2    2     1       0.7180375330E-02       2    2    1         0.3741573512E+00      0.1628461736E+01
          0                 2           2             8    2     1       0.2492030479E-02       2    2    1         0.6504386949E-01      0.3879572085E+00
          0                 3           2             8    2     1       0.1120065923E-02       8    2    1         0.2908801807E-01      0.1378351758E+00
          0                 4           2             8    2     1       0.5034233024E-03       8    2    1         0.1307387377E-01      0.5894784299E-01
          0                 5           2             8    2     1       0.2262676849E-03       8    2    1         0.5876164305E-02      0.2620182725E-01
          0                 6           1             8    2     1       0.1016977251E-03       8    2    1         0.2641089145E-02      0.1171916082E-01
          0                 7           1             8    2     1       0.4570875810E-04       8    2    1         0.1187057266E-02      0.5246849033E-02
          0                 8           1             8    2     1       0.2054409784E-04       8    2    1         0.5335311206E-03      0.2349589701E-02
          0                 9           1             8    2     1       0.9233666777E-05       8    2    1         0.2397989704E-03      0.1052260732E-02

    ------------------------------------------------
       NWT REQUIRED            9 OUTER ITERATIONS 
       AND A TOTAL OF         14 INNER ITERATIONS.
    ------------------------------------------------

 NO OUTPUT CONTROL FOR STRESS PERIOD   15   TIME STEP   15
 
 SOLVING FOR HEAD 
                                                   Max.-Head-Change                         Max.-Flux-Residual
  Residual-Control   Outer-Iter.   Inner-Iter.     Column Row Layer    Maximum-Head-Change  Column Row Layer    Maximum-Flux-Residual          L2-NORM 
          0                 1           2             2    2     1       0.7152247135E-02       2    2    1         0.3726689749E+00      0.1626552554E+01
          0                 2           2             8    2     1       0.2490921122E-02       2    2    1         0.6479133643E-01      0.3877538607E+00
          0                 3           2             8    2     1       0.1119566475E-02       8    2    1         0.2907506522E-01      0.1377798208E+00
          0                 4           2             8    2     1       0.5031984463E-03       8    2    1         0.1306804223E-01      0.5892421363E-01
          0                 5           2             8    2     1       0.2261664545E-03       8    2    1         0.5873538906E-02      0.2619116278E-01
          0                 6           1             8    2     1       0.1016521511E-03       8    2    1         0.2639907179E-02      0.1171431974E-01
          0                 7           1             8    2     1       0.4568824074E-04       8    2    1         0.1186525146E-02      0.5244650576E-02
          0                 8           1             8    2     1       0.2053486124E-04       8    2    1         0.5332915651E-03      0.2348591372E-02
          0                 9           1             8    2     1       0.9229508431E-05       8    2    1         0.2396911261E-03      0.1051807626E-02

    ------------------------------------------------
       NWT REQUIRED            9 OUTER ITERATIONS 
       AND A TOTAL OF         14 INNER ITERATIONS.
    ------------------------------------------------

 NO OUTPUT CONTROL FOR STRESS PERIOD   15   TIME STEP   16
 
 SOLVING FOR HEAD 
                                                   Max.-Head-Change                         Max.-Flux-Residual
  Residual-Control   Outer-Iter.   Inner-Iter.     Column Row Layer    Maximum-Head-Change  Column Row Layer    Maximum-Flux-Residual          L2-NORM 
          0                 1           2             2    2     1       0.7124858779E-02       2    2    1         0.3712198514E+00      0.1624780350E+01
          0                 2           2             8    2     1       0.2489856725E-02       8    2    1         0.6466138628E-01      0.3875487628E+00
          0                 3           2             8    2     1       0.1119087358E-02       8    2    1         0.2906263700E-01      0.1377223388E+00
          0                 4           2             8    2     1       0.5029828851E-03       8    2    1         0.1306244834E-01      0.5889983035E-01
          0                 5           2             8    2     1       0.2260695180E-03       8    2    1         0.5871022358E-02      0.2618018246E-01
          0                 6           1             8    2     1       0.1016085810E-03       8    2    1         0.2638775611E-02      0.1170933808E-01
          0                 7           1             8    2     1       0.4566866730E-04       8    2    1         0.1186016590E-02      0.5242389648E-02
          0                 8           1             8    2     1       0.2052607209E-04       8    2    1         0.5330631171E-03      0.2347566177E-02
          0                 9           1             8    2     1       0.9225564180E-05       8    2    1         0.2395885573E-03      0.1051342771E-02

    ------------------------------------------------
       NWT REQUIRED            9 OUTER ITERATIONS 
       AND A TOTAL OF         14 INNER ITERATIONS.
    ------------------------------------------------

 NO OUTPUT CONTROL FOR STRESS PERIOD   15   TIME STEP   17
 
 SOLVING FOR HEAD 
                                                   Max.-Head-Change                         Max.-Flux-Residual
  Residual-Control   Outer-Iter.   Inner-Iter.     Column Row Layer    Maximum-Head-Change  Column Row Layer    Maximum-Flux-Residual          L2-NORM 
          0                 1           2             2    2     1       0.7098188365E-02       2    2    1         0.3698088025E+00      0.1623012272E+01
          0                 2           2             8    2     1       0.2488747958E-02       8    2    1         0.6463260987E-01      0.3873319640E+00
          0                 3           2             8    2     1       0.1118588657E-02       8    2    1         0.2904969320E-01      0.1376617912E+00
          0                 4           2             8    2     1       0.5027585815E-03       8    2    1         0.1305662655E-01      0.5887450449E-01
          0                 5           2             8    2     1       0.2259686317E-03       8    2    1         0.5868403864E-02      0.2616887749E-01
          0                 6           1             8    2     1       0.1015632044E-03       8    2    1         0.2637597871E-02      0.1170423470E-01
          0                 7           1             8    2     1       0.4564825774E-04       8    2    1         0.1185486866E-02      0.5240078333E-02
          0                 8           1             8    2     1       0.2051689226E-04       8    2    1         0.5328248572E-03      0.2346517795E-02
          0                 9           1             8    2     1       0.9221435097E-05       8    2    1         0.2394813942E-03      0.1050867275E-02

    ------------------------------------------------
       NWT REQUIRED            9 OUTER ITERATIONS 
       AND A TOTAL OF         14 INNER ITERATIONS.
    ------------------------------------------------

 NO OUTPUT CONTROL FOR STRESS PERIOD   15   TIME STEP   18
 
 SOLVING FOR HEAD 
                                                   Max.-Head-Change                         Max.-Flux-Residual
  Residual-Control   Outer-Iter.   Inner-Iter.     Column Row Layer    Maximum-Head-Change  Column Row Layer    Maximum-Flux-Residual          L2-NORM 
          0                 1           2             2    2     1       0.7072173318E-02       2    2    1         0.3684325444E+00      0.1621274509E+01
          0                 2           2             8    2     1       0.2487640230E-02       8    2    1         0.6460386386E-01      0.3870968930E+00
          0                 3           2             8    2     1       0.1118090322E-02       8    2    1         0.2903676118E-01      0.1375932287E+00
          0                 4           2             8    2     1       0.5025343945E-03       8    2    1         0.1305080880E-01      0.5884531073E-01
          0                 5           2             8    2     1       0.2258677761E-03       8    2    1         0.5865786618E-02      0.2615565953E-01
          0                 6           1             8    2     1       0.1015178322E-03       8    2    1         0.2636420442E-02      0.1169824719E-01
          0                 7           1             8    2     1       0.4562784592E-04       8    2    1         0.1184957173E-02      0.5237431033E-02
          0                 8           1             8    2     1       0.2050770968E-04       8    2    1         0.5325865634E-03      0.2345269824E-02
          0                 9           1             8    2     1       0.9217304013E-05       8    2    1         0.2393741901E-03      0.1050299938E-02

    ------------------------------------------------
       NWT REQUIRED            9 OUTER ITERATIONS 
       AND A TOTAL OF         14 INNER ITERATIONS.
    ------------------------------------------------

 NO OUTPUT CONTROL FOR STRESS PERIOD   15   TIME STEP   19
 
 SOLVING FOR HEAD 
                                                   Max.-Head-Change                         Max.-Flux-Residual
  Residual-Control   Outer-Iter.   Inner-Iter.     Column Row Layer    Maximum-Head-Change  Column Row Layer    Maximum-Flux-Residual          L2-NORM 
          0                 1           2             2    2     1       0.7046793746E-02       2    2    1         0.3670899985E+00      0.1619513088E+01
          0                 2           2             8    2     1       0.2486578841E-02       8    2    1         0.6457632339E-01      0.3868600057E+00
          0                 3           2             8    2     1       0.1117612769E-02       8    2    1         0.2902436984E-01      0.1375259474E+00
          0                 4           2             8    2     1       0.5023195286E-03       8    2    1         0.1304523354E-01      0.5881705039E-01
          0                 5           2             8    2     1       0.2257711012E-03       8    2    1         0.5863278135E-02      0.2614295948E-01
          0                 6           1             8    2     1       0.1014743354E-03       8    2    1         0.2635291801E-02      0.1169245840E-01
          0                 7           1             8    2     1       0.4560827548E-04       8    2    1         0.1184449363E-02      0.5234730043E-02
          0                 8           1             8    2     1       0.2049890452E-04       8    2    1         0.5323580851E-03      0.2344092472E-02
          0                 9           1             8    2     1       0.9213342254E-05       8    2    1         0.2392713869E-03      0.1049769797E-02

    ------------------------------------------------
       NWT REQUIRED            9 OUTER ITERATIONS 
       AND A TOTAL OF         14 INNER ITERATIONS.
    ------------------------------------------------

 NO OUTPUT CONTROL FOR STRESS PERIOD   15   TIME STEP   20
 
 SOLVING FOR HEAD 
                                                   Max.-Head-Change                         Max.-Flux-Residual
  Residual-Control   Outer-Iter.   Inner-Iter.     Column Row Layer    Maximum-Head-Change  Column Row Layer    Maximum-Flux-Residual          L2-NORM 
          0                 1           2             2    2     1       0.7022071568E-02       2    2    1         0.3657823115E+00      0.1618135291E+01
          0                 2           2             8    2     1       0.2485472843E-02       8    2    1         0.6454762225E-01      0.3866697352E+00
          0                 3           2             8    2     1       0.1117115212E-02       8    2    1         0.2901145801E-01      0.1374665298E+00
          0                 4           2             8    2     1       0.5020956920E-03       8    2    1         0.1303942488E-01      0.5879129473E-01
          0                 5           2             8    2     1       0.2256704033E-03       8    2    1         0.5860664981E-02      0.2613133451E-01
          0                 6           1             8    2     1       0.1014290346E-03       8    2    1         0.2634116218E-02      0.1168719012E-01
          0                 7           1             8    2     1       0.4558789569E-04       8    2    1         0.1183920498E-02      0.5232342768E-02
          0                 8           1             8    2     1       0.2048973595E-04       8    2    1         0.5321201628E-03      0.2343010463E-02
          0                 9           1             8    2     1       0.9209217923E-05       8    2    1         0.2391643568E-03      0.1049279977E-02

    ------------------------------------------------
       NWT REQUIRED            9 OUTER ITERATIONS 
       AND A TOTAL OF         14 INNER ITERATIONS.
    ------------------------------------------------

 NO OUTPUT CONTROL FOR STRESS PERIOD   15   TIME STEP   21
 
 SOLVING FOR HEAD 
                                                   Max.-Head-Change                         Max.-Flux-Residual
  Residual-Control   Outer-Iter.   Inner-Iter.     Column Row Layer    Maximum-Head-Change  Column Row Layer    Maximum-Flux-Residual          L2-NORM 
          0                 1           2             2    2     1       0.6997946521E-02       2    2    1         0.3645063095E+00      0.1616814713E+01
          0                 2           2             8    2     1       0.2484367645E-02       8    2    1         0.6451894409E-01      0.3864764491E+00
          0                 3           2             8    2     1       0.1116617968E-02       8    2    1         0.2899855531E-01      0.1374041826E+00
          0                 4           2             8    2     1       0.5018719754E-03       8    2    1         0.1303361978E-01      0.5876425569E-01
          0                 5           2             8    2     1       0.2255697508E-03       8    2    1         0.5858053199E-02      0.2611919663E-01
          0                 6           1             8    2     1       0.1013837495E-03       8    2    1         0.2632941145E-02      0.1168172020E-01
          0                 7           1             8    2     1       0.4556752164E-04       8    2    1         0.1183391825E-02      0.5229876361E-02
          0                 8           1             8    2     1       0.2048056963E-04       8    2    1         0.5318823096E-03      0.2341897204E-02
          0                 9           1             8    2     1       0.9205093842E-05       8    2    1         0.2390573450E-03      0.1048775894E-02

    ------------------------------------------------
       NWT REQUIRED            9 OUTER ITERATIONS 
       AND A TOTAL OF         14 INNER ITERATIONS.
    ------------------------------------------------

 NO OUTPUT CONTROL FOR STRESS PERIOD   15   TIME STEP   22
 
 SOLVING FOR HEAD 
                                                   Max.-Head-Change                         Max.-Flux-Residual
  Residual-Control   Outer-Iter.   Inner-Iter.     Column Row Layer    Maximum-Head-Change  Column Row Layer    Maximum-Flux-Residual          L2-NORM 
          0                 1           2             2    2     1       0.6974441378E-02       2    2    1         0.3632631839E+00      0.1615672951E+01
          0                 2           2             8    2     1       0.2483263459E-02       8    2    1         0.6449028996E-01      0.3863015738E+00
          0                 3           2             8    2     1       0.1116121227E-02       8    2    1         0.2898566464E-01      0.1373450773E+00
          0                 4           2             8    2     1       0.5016485062E-03       8    2    1         0.1302782064E-01      0.5873835310E-01
          0                 5           2             8    2     1       0.2254692184E-03       8    2    1         0.5855444330E-02      0.2610750249E-01
          0                 6           1             8    2     1       0.1013385229E-03       8    2    1         0.2631767487E-02      0.1167642270E-01
          0                 7           1             8    2     1       0.4554717536E-04       8    2    1         0.1182863828E-02      0.5227475759E-02
          0                 8           1             8    2     1       0.2047141657E-04       8    2    1         0.5316447782E-03      0.2340810576E-02
          0                 9           1             8    2     1       0.9200975763E-05       8    2    1         0.2389504851E-03      0.1048284011E-02

    ------------------------------------------------
       NWT REQUIRED            9 OUTER ITERATIONS 
       AND A TOTAL OF         14 INNER ITERATIONS.
    ------------------------------------------------

 NO OUTPUT CONTROL FOR STRESS PERIOD   15   TIME STEP   23
 
 SOLVING FOR HEAD 
                                                   Max.-Head-Change                         Max.-Flux-Residual
  Residual-Control   Outer-Iter.   Inner-Iter.     Column Row Layer    Maximum-Head-Change  Column Row Layer    Maximum-Flux-Residual          L2-NORM 
          0                 1           2             2    2     1       0.6951538012E-02       2    2    1         0.3620519601E+00      0.1614277059E+01
          0                 2           2             8    2     1       0.2482160264E-02       8    2    1         0.6446166156E-01      0.3860775820E+00
          0                 3           2             8    2     1       0.1115624932E-02       8    2    1         0.2897278555E-01      0.1372807600E+00
          0                 4           2             8    2     1       0.5014252376E-03       8    2    1         0.1302202672E-01      0.5871190124E-01
          0                 5           2             8    2     1       0.2253687761E-03       8    2    1         0.5852837812E-02      0.2609569856E-01
          0                 6           1             8    2     1       0.1012933373E-03       8    2    1         0.2630594901E-02      0.1167108620E-01
          0                 7           1             8    2     1       0.4552684808E-04       8    2    1         0.1182336317E-02      0.5225059411E-02
          0                 8           1             8    2     1       0.2046227176E-04       8    2    1         0.5314074660E-03      0.2339716468E-02
          0                 9           1             8    2     1       0.9196861937E-05       8    2    1         0.2388437248E-03      0.1047789770E-02

    ------------------------------------------------
       NWT REQUIRED            9 OUTER ITERATIONS 
       AND A TOTAL OF         14 INNER ITERATIONS.
    ------------------------------------------------

 NO OUTPUT CONTROL FOR STRESS PERIOD   15   TIME STEP   24
 
 SOLVING FOR HEAD 
                                                   Max.-Head-Change                         Max.-Flux-Residual
  Residual-Control   Outer-Iter.   Inner-Iter.     Column Row Layer    Maximum-Head-Change  Column Row Layer    Maximum-Flux-Residual          L2-NORM 
          0                 1           2             2    2     1       0.6929177923E-02       2    2    1         0.3608695545E+00      0.1612798642E+01
          0                 2           2             8    2     1       0.2481103143E-02       8    2    1         0.6443423524E-01      0.3858598707E+00
          0                 3           2             8    2     1       0.1115149227E-02       8    2    1         0.2896044369E-01      0.1372174639E+00
          0                 4           2             8    2     1       0.5012111713E-03       8    2    1         0.1301647288E-01      0.5868529384E-01
          0                 5           2             8    2     1       0.2252724471E-03       8    2    1         0.5850338597E-02      0.2608376051E-01
          0                 6           1             8    2     1       0.1012499893E-03       8    2    1         0.2629470257E-02      0.1166568633E-01
          0                 7           1             8    2     1       0.4550734167E-04       8    2    1         0.1181830235E-02      0.5222615284E-02
          0                 8           1             8    2     1       0.2045349411E-04       8    2    1         0.5311797348E-03      0.2338610479E-02
          0                 9           1             8    2     1       0.9192911933E-05       8    2    1         0.2387412503E-03      0.1047288742E-02

    ------------------------------------------------
       NWT REQUIRED            9 OUTER ITERATIONS 
       AND A TOTAL OF         14 INNER ITERATIONS.
    ------------------------------------------------

 NO OUTPUT CONTROL FOR STRESS PERIOD   15   TIME STEP   25
 
 SOLVING FOR HEAD 
                                                   Max.-Head-Change                         Max.-Flux-Residual
  Residual-Control   Outer-Iter.   Inner-Iter.     Column Row Layer    Maximum-Head-Change  Column Row Layer    Maximum-Flux-Residual          L2-NORM 
          0                 1           2             2    2     1       0.6907345203E-02       2    2    1         0.3597151108E+00      0.1611765189E+01
          0                 2           2             8    2     1       0.2480001418E-02       8    2    1         0.6440564489E-01      0.3856621137E+00
          0                 3           2             8    2     1       0.1114653596E-02       8    2    1         0.2894758177E-01      0.1371436257E+00
          0                 4           2             8    2     1       0.5009882020E-03       8    2    1         0.1301068671E-01      0.5865251529E-01
          0                 5           2             8    2     1       0.2251721403E-03       8    2    1         0.5847735576E-02      0.2606893147E-01
          0                 6           1             8    2     1       0.1012048645E-03       8    2    1         0.2628299240E-02      0.1165897693E-01
          0                 7           1             8    2     1       0.4548704141E-04       8    2    1         0.1181303431E-02      0.5219581347E-02
          0                 8           1             8    2     1       0.2044436156E-04       8    2    1         0.5309427408E-03      0.2337240436E-02
          0                 9           1             8    2     1       0.9188803859E-05       8    2    1         0.2386346339E-03      0.1046670785E-02

    ------------------------------------------------
       NWT REQUIRED            9 OUTER ITERATIONS 
       AND A TOTAL OF         14 INNER ITERATIONS.
    ------------------------------------------------

 NO OUTPUT CONTROL FOR STRESS PERIOD   15   TIME STEP   26
 
 SOLVING FOR HEAD 
                                                   Max.-Head-Change                         Max.-Flux-Residual
  Residual-Control   Outer-Iter.   Inner-Iter.     Column Row Layer    Maximum-Head-Change  Column Row Layer    Maximum-Flux-Residual          L2-NORM 
          0                 1           2             2    2     1       0.6886064996E-02       2    2    1         0.3585899710E+00      0.1610670160E+01
          0                 2           2             8    2     1       0.2478900501E-02       8    2    1         0.6437707770E-01      0.3854768419E+00
          0                 3           2             8    2     1       0.1114158282E-02       8    2    1         0.2893472907E-01      0.1370804776E+00
          0                 4           2             8    2     1       0.5007653556E-03       8    2    1         0.1300490414E-01      0.5862487416E-01
          0                 5           2             8    2     1       0.2250718798E-03       8    2    1         0.5845133948E-02      0.2605643991E-01
          0                 6           1             8    2     1       0.1011597565E-03       8    2    1         0.2627128743E-02      0.1165331246E-01
          0                 7           1             8    2     1       0.4546674690E-04       8    2    1         0.1180776815E-02      0.5217017961E-02
          0                 8           1             8    2     1       0.2043523100E-04       8    2    1         0.5307058123E-03      0.2336081564E-02
          0                 9           1             8    2     1       0.9184696036E-05       8    2    1         0.2385280394E-03      0.1046146405E-02

    ------------------------------------------------
       NWT REQUIRED            9 OUTER ITERATIONS 
       AND A TOTAL OF         14 INNER ITERATIONS.
    ------------------------------------------------

 NO OUTPUT CONTROL FOR STRESS PERIOD   15   TIME STEP   27
 
 SOLVING FOR HEAD 
                                                   Max.-Head-Change                         Max.-Flux-Residual
  Residual-Control   Outer-Iter.   Inner-Iter.     Column Row Layer    Maximum-Head-Change  Column Row Layer    Maximum-Flux-Residual          L2-NORM 
          0                 1           2             2    2     1       0.6865321189E-02       2    2    1         0.3574932570E+00      0.1609774399E+01
          0                 2           2             8    2     1       0.2477800311E-02       8    2    1         0.6434853053E-01      0.3853081456E+00
          0                 3           2             8    2     1       0.1113663269E-02       8    2    1         0.2892188472E-01      0.1370160631E+00
          0                 4           2             8    2     1       0.5005426335E-03       8    2    1         0.1299912504E-01      0.5859611607E-01
          0                 5           2             8    2     1       0.2249716698E-03       8    2    1         0.5842533740E-02      0.2604348302E-01
          0                 6           1             8    2     1       0.1011146690E-03       8    2    1         0.2625958834E-02      0.1164747371E-01
          0                 7           1             8    2     1       0.4544646089E-04       8    2    1         0.1180250440E-02      0.5214385897E-02
          0                 8           1             8    2     1       0.2042610370E-04       8    2    1         0.5304689833E-03      0.2334894809E-02
          0                 9           1             8    2     1       0.9180589712E-05       8    2    1         0.2384214844E-03      0.1045612205E-02

    ------------------------------------------------
       NWT REQUIRED            9 OUTER ITERATIONS 
       AND A TOTAL OF         14 INNER ITERATIONS.
    ------------------------------------------------

 NO OUTPUT CONTROL FOR STRESS PERIOD   15   TIME STEP   28
 
 SOLVING FOR HEAD 
                                                   Max.-Head-Change                         Max.-Flux-Residual
  Residual-Control   Outer-Iter.   Inner-Iter.     Column Row Layer    Maximum-Head-Change  Column Row Layer    Maximum-Flux-Residual          L2-NORM 
          0                 1           2             2    2     1       0.6845057574E-02       2    2    1         0.3564220078E+00      0.1608931693E+01
          0                 2           2             8    2     1       0.2476701160E-02       8    2    1         0.6432000680E-01      0.3851355934E+00
          0                 3           2             8    2     1       0.1113168799E-02       8    2    1         0.2890905286E-01      0.1369495193E+00
          0                 4           2             8    2     1       0.5003201885E-03       8    2    1         0.1299335243E-01      0.5856694735E-01
          0                 5           2             8    2     1       0.2248715999E-03       8    2    1         0.5839936845E-02      0.2603050635E-01
          0                 6           1             8    2     1       0.1010696513E-03       8    2    1         0.2624790581E-02      0.1164166709E-01
          0                 7           1             8    2     1       0.4542620865E-04       8    2    1         0.1179724881E-02      0.5211779127E-02
          0                 8           1             8    2     1       0.2041699341E-04       8    2    1         0.5302325574E-03      0.2333722295E-02
          0                 9           1             8    2     1       0.9176490643E-05       8    2    1         0.2383151201E-03      0.1045084766E-02

    ------------------------------------------------
       NWT REQUIRED            9 OUTER ITERATIONS 
       AND A TOTAL OF         14 INNER ITERATIONS.
    ------------------------------------------------

 NO OUTPUT CONTROL FOR STRESS PERIOD   15   TIME STEP   29
 
 SOLVING FOR HEAD 
                                                   Max.-Head-Change                         Max.-Flux-Residual
  Residual-Control   Outer-Iter.   Inner-Iter.     Column Row Layer    Maximum-Head-Change  Column Row Layer    Maximum-Flux-Residual          L2-NORM 
          0                 1           2             2    2     1       0.8996757170E-02       2    2    1         0.4693530804E+00      0.1864555764E+01
          0                 2           2             8    2     1       0.2475602826E-02       2    2    1         0.8144289930E-01      0.4033452630E+00
          0                 3           2             8    2     1       0.1112674650E-02       8    2    1         0.2889623032E-01      0.1380753403E+00
          0                 4           2             8    2     1       0.5000978670E-03       8    2    1         0.1298758347E-01      0.5864880284E-01
          0                 5           2             8    2     1       0.2247715760E-03       8    2    1         0.5837341345E-02      0.2604048209E-01
          0                 6           1             8    2     1       0.1010246498E-03       8    2    1         0.2623622846E-02      0.1164419175E-01
          0                 7           1             8    2     1       0.4540596241E-04       8    2    1         0.1179199509E-02      0.5212695323E-02
          0                 8           1             8    2     1       0.2040788436E-04       8    2    1         0.5299961837E-03      0.2334091622E-02
          0                 9           1             8    2     1       0.9172392323E-05       8    2    1         0.2382087724E-03      0.1045248110E-02

    ------------------------------------------------
       NWT REQUIRED            9 OUTER ITERATIONS 
       AND A TOTAL OF         14 INNER ITERATIONS.
    ------------------------------------------------

 NO OUTPUT CONTROL FOR STRESS PERIOD   15   TIME STEP   30



 STREAM LISTING     PERIOD     15   STEP       30

 LAYER ROW COL. STREAM  RCH.  FLOW INTO     FLOW TO   FLOW OUT OF   OVRLND.     DIRECT     STREAM       STREAM     STREAM     STREAM   STREAMBED  STREAMBED
                SEG.NO.  NO.  STRM. RCH.    AQUIFER    STRM. RCH.    RUNOFF     PRECIP       ET          HEAD       DEPTH      WIDTH   CONDCTNC.   GRADIENT

   1    1    1     1     1    3.8580E+01  2.9906E-01   3.8281E+01  0.000E+00  0.000E+00  0.000E+00  1.09437E+03  1.321E+00  1.538E+01  6.922E-02  1.440E+00
   1    2    2     1     2    3.8281E+01  4.6314E-01   3.7818E+01  0.000E+00  0.000E+00  0.000E+00  1.08938E+03  1.318E+00  1.532E+01  1.073E-01  1.439E+00
   1    3    3     1     3    3.7818E+01  3.9497E-01   3.7423E+01  0.000E+00  0.000E+00  0.000E+00  1.08373E+03  1.314E+00  1.526E+01  9.155E-02  1.438E+00
   1    3    4     1     4    3.7423E+01  3.6369E-01   3.7059E+01  0.000E+00  0.000E+00  0.000E+00  1.07872E+03  1.311E+00  1.520E+01  8.435E-02  1.437E+00
   1    4    5     2     1    3.5059E+01  0.0000E+00   3.5059E+01  0.000E+00  0.000E+00  0.000E+00  1.07341E+03  1.479E+00  1.200E+01  0.000E+00  1.493E+00
   1    5    6     2     2    3.5059E+01  0.0000E+00   3.5059E+01  0.000E+00  0.000E+00  0.000E+00  1.06799E+03  1.479E+00  1.200E+01  0.000E+00  1.493E+00
   1    6    6     2     3    3.5059E+01  0.0000E+00   3.5059E+01  0.000E+00  0.000E+00  0.000E+00  1.06327E+03  1.479E+00  1.200E+01  0.000E+00  1.493E+00
   1    7    6     2     4    3.5059E+01  0.0000E+00   3.5059E+01  0.000E+00  0.000E+00  0.000E+00  1.05855E+03  1.479E+00  1.200E+01  0.000E+00  1.493E+00
   1    8    6     2     5    3.5059E+01  0.0000E+00   3.5059E+01  0.000E+00  0.000E+00  0.000E+00  1.05384E+03  1.479E+00  1.200E+01  0.000E+00  1.493E+00
   1    3    5     3     1    2.0000E+00  2.8252E-01   1.7175E+00  0.000E+00  0.000E+00  0.000E+00  1.07555E+03  1.909E+00  9.636E+00  7.227E-02  1.955E+00
   1    3    6     3     2    1.7175E+00  2.4905E-01   1.4684E+00  0.000E+00  0.000E+00  0.000E+00  1.07264E+03  1.727E+00  8.909E+00  6.682E-02  1.864E+00
   1    3    7     3     3    1.4684E+00  1.9718E-01   1.2712E+00  0.000E+00  0.000E+00  0.000E+00  1.06987E+03  1.555E+00  8.218E+00  5.547E-02  1.777E+00
   1    4    8     3     4    1.2712E+00  2.2567E-01   1.0456E+00  0.000E+00  0.000E+00  0.000E+00  1.06682E+03  1.364E+00  7.455E+00  6.709E-02  1.682E+00
   1    5    8     3     5    1.0456E+00  1.5790E-01   8.8768E-01  0.000E+00  0.000E+00  0.000E+00  1.06362E+03  1.164E+00  6.655E+00  4.991E-02  1.582E+00
   1    6    8     3     6    8.8768E-01  5.5980E-02   8.3170E-01  0.000E+00  0.000E+00  0.000E+00  1.06158E+03  1.036E+00  6.145E+00  1.844E-02  1.518E+00
   1    5   10     4     1    1.0000E+01  0.0000E+00   1.0000E+01  0.000E+00  0.000E+00  0.000E+00  1.07837E+03  6.385E-01  1.000E+01  0.000E+00  1.213E+00
   1    5    9     4     2    1.0000E+01  0.0000E+00   1.0000E+01  0.000E+00  0.000E+00  0.000E+00  1.07155E+03  6.385E-01  1.000E+01  0.000E+00  1.213E+00
   1    6    8     4     3    1.0000E+01  0.0000E+00   1.0000E+01  0.000E+00  0.000E+00  0.000E+00  1.06382E+03  6.385E-01  1.000E+01  0.000E+00  1.213E+00
   1    6    8     5     1    1.0832E+01  2.3262E-01   1.0599E+01  0.000E+00  0.000E+00  0.000E+00  1.05869E+03  6.881E-01  1.577E+01  6.307E-02  1.229E+00
   1    7    7     5     2    1.0599E+01  2.8607E-01   1.0313E+01  0.000E+00  0.000E+00  0.000E+00  1.05418E+03  6.822E-01  1.554E+01  7.769E-02  1.227E+00
   1    8    7     5     3    1.0313E+01  1.9716E-01   1.0116E+01  0.000E+00  0.000E+00  0.000E+00  1.04993E+03  6.766E-01  1.532E+01  5.363E-02  1.226E+00
   1    8    6     5     4    1.0116E+01  1.3929E-01   9.9766E+00  0.000E+00  0.000E+00  0.000E+00  1.04692E+03  6.727E-01  1.517E+01  3.792E-02  1.224E+00
   1    9    6     6     1    4.5036E+01  0.0000E+00   4.5036E+01  0.000E+00  0.000E+00  0.000E+00  1.04447E+03  1.738E+00  1.200E+01  0.000E+00  1.579E+00
   1   10    7     6     2    4.5036E+01  0.0000E+00   4.5036E+01  0.000E+00  0.000E+00  0.000E+00  1.03992E+03  1.738E+00  1.200E+01  0.000E+00  1.579E+00
   1   11    7     6     3    4.5036E+01  0.0000E+00   4.5036E+01  0.000E+00  0.000E+00  0.000E+00  1.03537E+03  1.738E+00  1.200E+01  0.000E+00  1.579E+00
   1   12    7     6     4    4.5036E+01  0.0000E+00   4.5036E+01  0.000E+00  0.000E+00  0.000E+00  1.03083E+03  1.738E+00  1.200E+01  0.000E+00  1.579E+00
   1   13    7     6     5    4.5036E+01  0.0000E+00   4.5036E+01  0.000E+00  0.000E+00  0.000E+00  1.02765E+03  1.738E+00  1.200E+01  0.000E+00  3.397E-01
   1   14    9     7     1    1.5000E+02  1.2669E+00   1.4873E+02  0.000E+00  0.000E+00  0.000E+00  1.03987E+03  2.288E+00  5.530E+01  5.593E-01  7.550E-01
   1   13    8     7     2    1.4873E+02  1.9050E+00   1.4683E+02  0.000E+00  0.000E+00  0.000E+00  1.03478E+03  2.279E+00  5.526E+01  6.148E-01  1.033E+00
   1   13    7     7     3    1.4683E+02  1.7093E+00   1.4512E+02  0.000E+00  0.000E+00  0.000E+00  1.02969E+03  2.270E+00  5.521E+01  5.584E-01  1.020E+00
   1   13    6     8     1    1.9015E+02  1.2293E+00   1.8893E+02  0.000E+00  0.000E+00  0.000E+00  1.02495E+03  3.075E+00  4.459E+01  4.544E-01  9.018E-01
   1   13    5     8     2    1.8893E+02  4.0431E-01   1.8852E+02  0.000E+00  0.000E+00  0.000E+00  1.01870E+03  3.070E+00  4.452E+01  4.536E-01  2.971E-01
   1   13    4     8     3    1.8852E+02 -1.6630E+00   1.9018E+02  0.000E+00  0.000E+00  0.000E+00  1.01245E+03  3.074E+00  4.457E+01  4.542E+00 -1.220E-01
   1   13    3     8     4    1.9018E+02 -3.2795E+00   1.9346E+02  0.000E+00  0.000E+00  0.000E+00  1.00621E+03  3.089E+00  4.479E+01  4.564E+00 -2.395E-01
   1   13    2     8     5    1.9346E+02 -2.2982E+00   1.9576E+02  0.000E+00  0.000E+00  0.000E+00  9.99981E+02  3.106E+00  4.503E+01  4.589E+00 -1.669E-01
   1   13    1     8     6    1.9576E+02 -1.8157E+00   1.9758E+02  0.000E+00  0.000E+00  0.000E+00  9.94993E+02  3.118E+00  4.521E+01  2.764E+00 -2.189E-01
   1    6    8     9     1    0.0000E+00  0.0000E+00   0.0000E+00  0.000E+00  0.000E+00  0.000E+00  1.07850E+03  0.000E+00  4.000E+00  0.000E+00  1.000E+00





UNSATURATED ZONE PACKAGE VOLUMETRIC BUDGET FOR  TIME STEP    30 STRESS PERIOD   15
  ------------------------------------------------------------------------------



     CUMULATIVE VOLUMES      L**3       RATES FOR THIS TIME STEP      L**3/T
     ------------------                 ------------------------

           IN:                                      IN:
           ---                                      ---
        INFILTRATION =    51441884.2819          INFILTRATION =           0.8475

          OUT:                                     OUT:
          ----                                     ----
              UZF ET =   573269822.1700                UZF ET =           0.2900
        UZF RECHARGE =   928477123.5431          UZF RECHARGE =          22.7041

            IN - OUT = -1450305061.4312              IN - OUT =         -22.1466

          STORAGE:                                 STORAGE:
          --------                                 --------
      STORAGE CHANGE = -1450296381.8577        STORAGE CHANGE =         -22.1466

 PERCENT DISCREPANCY IS DIFFERENCE BETWEEN IN-OUT MINUS CHANGE IN STORAGE
 DIVIDED BY THE AVERAGE OF IN AND OUT TIMES 100

 PERCENT DISCREPANCY =          -0.00     PERCENT DISCREPANCY =           0.00






1
  VOLUMETRIC BUDGET FOR ENTIRE MODEL AT END OF TIME STEP   30, STRESS PERIOD  15
  ------------------------------------------------------------------------------

     CUMULATIVE VOLUMES      L**3       RATES FOR THIS TIME STEP      L**3/T
     ------------------                 ------------------------

           IN:                                      IN:
           ---                                      ---
             STORAGE =    28506726.0000               STORAGE =       3.3957E-02
       CONSTANT HEAD =           0.0000         CONSTANT HEAD =           0.0000
               WELLS =           0.0000                 WELLS =           0.0000
     HEAD DEP BOUNDS =    11196617.0000       HEAD DEP BOUNDS =           0.2811
      STREAM LEAKAGE =   394283872.0000        STREAM LEAKAGE =          10.0591
        UZF RECHARGE =   928476736.0000          UZF RECHARGE =          22.7041
               GW ET =           0.0000                 GW ET =           0.0000
     SURFACE LEAKAGE =           0.0000       SURFACE LEAKAGE =           0.0000

            TOTAL IN =  1362464000.0000              TOTAL IN =          33.0783

          OUT:                                     OUT:
          ----                                     ----
             STORAGE =   948194816.0000               STORAGE =          23.7278
       CONSTANT HEAD =           0.0000         CONSTANT HEAD =           0.0000
               WELLS =     1016027.8750                 WELLS =           0.0000
     HEAD DEP BOUNDS =    11307138.0000       HEAD DEP BOUNDS =           0.2907
      STREAM LEAKAGE =   330855296.0000        STREAM LEAKAGE =           9.0565
        UZF RECHARGE =           0.0000          UZF RECHARGE =           0.0000
               GW ET =    70996352.0000                 GW ET =       1.8026E-10
     SURFACE LEAKAGE =           0.0000       SURFACE LEAKAGE =           0.0000

           TOTAL OUT =  1362369664.0000             TOTAL OUT =          33.0750

            IN - OUT =       94336.0000              IN - OUT =       3.2425E-03

 PERCENT DISCREPANCY =           0.01     PERCENT DISCREPANCY =           0.01






         TIME SUMMARY AT END OF TIME STEP   30 IN STRESS PERIOD   15
                    SECONDS     MINUTES      HOURS       DAYS        YEARS
                    -----------------------------------------------------------
   TIME STEP LENGTH  87600.      1460.0      24.333      1.0139     2.77588E-03
 STRESS PERIOD TIME 2.62800E+06  43800.      730.00      30.417     8.32763E-02
         TOTAL TIME 3.94200E+07 6.57000E+05  10950.      456.25      1.2491    
1
1
                            STRESS PERIOD NO.   16, LENGTH =   2628000.    
                            -----------------------------------------------

                              NUMBER OF TIME STEPS =    30

                               MULTIPLIER FOR DELT =     1.000

                            INITIAL TIME STEP SIZE =   87600.00    

 WELL NO.  LAYER   ROW   COL   STRESS RATE         
 --------------------------------------------------
      1      1      6      4       0.000    
      2      1      6      7       0.000    
      3      1      7      4       0.000    
      4      1      7      5       0.000    
      5      1      8      4       0.000    
      6      1      8      5       0.000    
      7      1      9      4       0.000    
      8      1      9      5       0.000    
      9      1     10      4       0.000    
     10      1     10      5       0.000    

     10 WELLS

 REUSING NON-PARAMETER GHB CELLS FROM LAST STRESS PERIOD

      2 GHB CELLS

 REUSING STREAM SEGMENT DATA FROM LAST STRESS PERIOD



            AREAL INFILTRATION RATE
 READING ON UNIT   19 WITH FORMAT: (10F4.0)            

            1           2           3           4           5           6           7           8           9          10
 ........................................................................................................................
   1   1.0000E-10  2.0000E-10   0.000       0.000       0.000       0.000       0.000       0.000       0.000       0.000    
   2   2.0000E-10  1.0000E-10  2.0000E-10   0.000       0.000      8.0000E-10  8.0000E-10  5.0000E-10   0.000       0.000    
   3    0.000      5.0000E-10  1.0000E-10  1.0000E-10  8.0000E-10  8.0000E-10  5.0000E-10  5.0000E-10   0.000       0.000    
   4   8.0000E-10  5.0000E-10  1.0000E-10  1.0000E-10  1.0000E-10  1.0000E-10  1.0000E-10  1.0000E-10  2.0000E-10   0.000    
   5   8.0000E-10  5.0000E-10  1.0000E-10  1.0000E-10  1.0000E-10  1.0000E-10  1.0000E-10  1.0000E-10  1.0000E-10  1.0000E-10
   6   8.0000E-10  5.0000E-10  5.0000E-10  2.0000E-10  2.0000E-10  1.0000E-10  1.0000E-10  1.0000E-10  1.0000E-10  5.0000E-10
   7   8.0000E-10  5.0000E-10  5.0000E-10  2.0000E-10  2.0000E-10  1.0000E-10  1.0000E-10  2.0000E-10  2.0000E-10   0.000    
   8    0.000      5.0000E-10  5.0000E-10  2.0000E-10  2.0000E-10  1.0000E-10  1.0000E-10  2.0000E-10  5.0000E-10   0.000    
   9    0.000      5.0000E-10  5.0000E-10  2.0000E-10  2.0000E-10  1.0000E-10  1.0000E-10  2.0000E-10  5.0000E-10   0.000    
  10    0.000      5.0000E-10  5.0000E-10  2.0000E-10  2.0000E-10  1.0000E-10  1.0000E-10  2.0000E-10  5.0000E-10  8.0000E-10
  11    0.000      1.0000E-10  1.0000E-10  1.0000E-10  1.0000E-10  1.0000E-10  1.0000E-10  2.0000E-10  5.0000E-10   0.000    
  12   1.0000E-10  1.0000E-10  1.0000E-10  1.0000E-10  1.0000E-10  1.0000E-10  1.0000E-10  1.0000E-10  2.0000E-10   0.000    
  13   1.0000E-10  1.0000E-10  2.0000E-10  2.0000E-10  2.0000E-10  2.0000E-10  2.0000E-10  1.0000E-10  1.0000E-10   0.000    
  14    0.000      2.0000E-10  5.0000E-10  5.0000E-10  5.0000E-10  5.0000E-10  5.0000E-10  2.0000E-10  1.0000E-10   0.000    
  15    0.000       0.000      8.0000E-10  8.0000E-10  8.0000E-10  8.0000E-10   0.000       0.000       0.000       0.000    

                  ET RATE =  1.000000E-09

 USING ET EXTINCTION DEPTH FROM PREVIOUS STRESS PERIOD. CURRENT PERIOD IS:      16

 USING EXTINCTION WATER CONTENT FROM PREVIOUS STRESS PERIOD. CURRENT PERIOD IS:      16
 
 SOLVING FOR HEAD 
                                                   Max.-Head-Change                         Max.-Flux-Residual
  Residual-Control   Outer-Iter.   Inner-Iter.     Column Row Layer    Maximum-Head-Change  Column Row Layer    Maximum-Flux-Residual          L2-NORM 
          0                 1           2             4   13     1       0.3186986230E-01       4   13    1         0.1844105170E+01      0.3696016216E+01
          0                 2           2             4   13     1      -0.3112512239E-02       4   13    1        -0.1821919732E+00      0.5270280082E+00
          0                 3           2             8    2     1       0.1112160442E-02       8    2    1         0.2888288640E-01      0.1436160780E+00
          0                 4           2             8    2     1       0.4998665398E-03       8    2    1         0.1298158042E-01      0.5900844676E-01
          0                 5           2             8    2     1       0.2246675090E-03       8    2    1         0.5834640757E-02      0.2610428074E-01
          0                 6           1             8    2     1       0.1009778335E-03       8    2    1         0.2622407937E-02      0.1166647875E-01
          0                 7           1             8    2     1       0.4538490156E-04       8    2    1         0.1178652964E-02      0.5222029414E-02
          0                 8           1             8    2     1       0.2039840941E-04       8    2    1         0.5297503104E-03      0.2338119132E-02
          0                 9           1             8    2     1       0.9168130181E-05       8    2    1         0.2380981695E-03      0.1046982248E-02

    ------------------------------------------------
       NWT REQUIRED            9 OUTER ITERATIONS 
       AND A TOTAL OF         14 INNER ITERATIONS.
    ------------------------------------------------

 NO OUTPUT CONTROL FOR STRESS PERIOD   16   TIME STEP    1
 
 SOLVING FOR HEAD 
                                                   Max.-Head-Change                         Max.-Flux-Residual
  Residual-Control   Outer-Iter.   Inner-Iter.     Column Row Layer    Maximum-Head-Change  Column Row Layer    Maximum-Flux-Residual          L2-NORM 
          0                 1           2             4   13     1       0.2868436783E-01       4   13    1         0.1658606254E+01      0.3476691907E+01
          0                 2           2             4   13     1      -0.2799586131E-02       4   13    1        -0.1638568413E+00      0.5128690712E+00
          0                 3           2             8    2     1       0.1111667127E-02       8    2    1         0.2887008546E-01      0.1433626280E+00
          0                 4           2             8    2     1       0.4996445948E-03       8    2    1         0.1297582120E-01      0.5908210981E-01
          0                 5           2             8    2     1       0.2245676552E-03       8    2    1         0.5832049656E-02      0.2614024389E-01
          0                 6           1             8    2     1       0.1009329088E-03       8    2    1         0.2621242189E-02      0.1168220591E-01
          0                 7           1             8    2     1       0.4536468959E-04       8    2    1         0.1178128490E-02      0.5228859071E-02
          0                 8           1             8    2     1       0.2038931637E-04       8    2    1         0.5295143520E-03      0.2341084311E-02
          0                 9           1             8    2     1       0.9164039114E-05       8    2    1         0.2379920082E-03      0.1048269960E-02

    ------------------------------------------------
       NWT REQUIRED            9 OUTER ITERATIONS 
       AND A TOTAL OF         14 INNER ITERATIONS.
    ------------------------------------------------

 NO OUTPUT CONTROL FOR STRESS PERIOD   16   TIME STEP    2
 
 SOLVING FOR HEAD 
                                                   Max.-Head-Change                         Max.-Flux-Residual
  Residual-Control   Outer-Iter.   Inner-Iter.     Column Row Layer    Maximum-Head-Change  Column Row Layer    Maximum-Flux-Residual          L2-NORM 
          0                 1           2             4   13     1       0.2583854564E-01       4   13    1         0.1492942678E+01      0.3283292419E+01
          0                 2           2             4   13     1      -0.2520047483E-02       4   13    1        -0.1474806828E+00      0.5007835261E+00
          0                 3           2             8    2     1       0.1111174255E-02       8    2    1         0.2885729552E-01      0.1431730760E+00
          0                 4           2             8    2     1       0.4994228591E-03       8    2    1         0.1297006719E-01      0.5915557140E-01
          0                 5           2             8    2     1       0.2244678996E-03       8    2    1         0.5829461016E-02      0.2617552242E-01
          0                 6           1             8    2     1       0.1008880306E-03       8    2    1         0.2620077602E-02      0.1169757130E-01
          0                 7           1             8    2     1       0.4534449962E-04       8    2    1         0.1177604560E-02      0.5235511629E-02
          0                 8           1             8    2     1       0.2038023334E-04       8    2    1         0.5292786462E-03      0.2343965399E-02
          0                 9           1             8    2     1       0.9159953050E-05       8    2    1         0.2378859693E-03      0.1049519118E-02

    ------------------------------------------------
       NWT REQUIRED            9 OUTER ITERATIONS 
       AND A TOTAL OF         14 INNER ITERATIONS.
    ------------------------------------------------

 NO OUTPUT CONTROL FOR STRESS PERIOD   16   TIME STEP    3
 
 SOLVING FOR HEAD 
                                                   Max.-Head-Change                         Max.-Flux-Residual
  Residual-Control   Outer-Iter.   Inner-Iter.     Column Row Layer    Maximum-Head-Change  Column Row Layer    Maximum-Flux-Residual          L2-NORM 
          0                 1           2             4   13     1       0.2329529666E-01       4   13    1         0.1344943593E+01      0.3113414724E+01
          0                 2           2             8    2     1       0.2471173075E-02       4   13    1        -0.1328492724E+00      0.4905217234E+00
          0                 3           2             8    2     1       0.1110681743E-02       8    2    1         0.2884451537E-01      0.1430321550E+00
          0                 4           2             8    2     1       0.4992012772E-03       8    2    1         0.1296431737E-01      0.5922506621E-01
          0                 5           2             8    2     1       0.2243682099E-03       8    2    1         0.5826874159E-02      0.2620857038E-01
          0                 6           1             8    2     1       0.1008431800E-03       8    2    1         0.2618913770E-02      0.1171195821E-01
          0                 7           1             8    2     1       0.4532432167E-04       8    2    1         0.1177080953E-02      0.5241737396E-02
          0                 8           1             8    2     1       0.2037115481E-04       8    2    1         0.5290430711E-03      0.2346660240E-02
          0                 9           1             8    2     1       0.9155868987E-05       8    2    1         0.2377799884E-03      0.1050687168E-02

    ------------------------------------------------
       NWT REQUIRED            9 OUTER ITERATIONS 
       AND A TOTAL OF         14 INNER ITERATIONS.
    ------------------------------------------------

 NO OUTPUT CONTROL FOR STRESS PERIOD   16   TIME STEP    4
 
 SOLVING FOR HEAD 
                                                   Max.-Head-Change                         Max.-Flux-Residual
  Residual-Control   Outer-Iter.   Inner-Iter.     Column Row Layer    Maximum-Head-Change  Column Row Layer    Maximum-Flux-Residual          L2-NORM 
          0                 1           2             4   13     1       0.2102147921E-01       4   13    1         0.1212670330E+01      0.2964213897E+01
          0                 2           2             8    2     1       0.2470079123E-02       2    2    1         0.1227878972E+00      0.4817351884E+00
          0                 3           2             8    2     1       0.1110189546E-02       8    2    1         0.2883174390E-01      0.1429118149E+00
          0                 4           2             8    2     1       0.4989798266E-03       8    2    1         0.1295857117E-01      0.5928521266E-01
          0                 5           2             8    2     1       0.2242685739E-03       8    2    1         0.5824288805E-02      0.2623733951E-01
          0                 6           1             8    2     1       0.1007983521E-03       8    2    1         0.2617750567E-02      0.1172447099E-01
          0                 7           1             8    2     1       0.4530415246E-04       8    2    1         0.1176557602E-02      0.5247136510E-02
          0                 8           1             8    2     1       0.2036208078E-04       8    2    1         0.5288076068E-03      0.2348987367E-02
          0                 9           1             8    2     1       0.9151785924E-05       8    2    1         0.2376740437E-03      0.1051689179E-02

    ------------------------------------------------
       NWT REQUIRED            9 OUTER ITERATIONS 
       AND A TOTAL OF         14 INNER ITERATIONS.
    ------------------------------------------------

 NO OUTPUT CONTROL FOR STRESS PERIOD   16   TIME STEP    5
 
 SOLVING FOR HEAD 
                                                   Max.-Head-Change                         Max.-Flux-Residual
  Residual-Control   Outer-Iter.   Inner-Iter.     Column Row Layer    Maximum-Head-Change  Column Row Layer    Maximum-Flux-Residual          L2-NORM 
          0                 1           2             4   13     1       0.1898770551E-01       4   13    1         0.1094417827E+01      0.2833452983E+01
          0                 2           2             8    2     1       0.2468940500E-02       2    2    1         0.1218105404E+00      0.4742259244E+00
          0                 3           2             8    2     1       0.1109677320E-02       8    2    1         0.2881845123E-01      0.1428089973E+00
          0                 4           2             8    2     1       0.4987493941E-03       8    2    1         0.1295259126E-01      0.5933585425E-01
          0                 5           2             8    2     1       0.2241649109E-03       8    2    1         0.5821598660E-02      0.2626160835E-01
          0                 6           1             8    2     1       0.1007517176E-03       8    2    1         0.2616540369E-02      0.1173580390E-01
          0                 7           1             8    2     1       0.4528317365E-04       8    2    1         0.1176013185E-02      0.5253548097E-02
          0                 8           1             8    2     1       0.2035264334E-04       8    2    1         0.5285626967E-03      0.2350968846E-02
          0                 9           1             8    2     1       0.9147540539E-05       8    2    1         0.2375638677E-03      0.1052541992E-02

    ------------------------------------------------
       NWT REQUIRED            9 OUTER ITERATIONS 
       AND A TOTAL OF         14 INNER ITERATIONS.
    ------------------------------------------------

 NO OUTPUT CONTROL FOR STRESS PERIOD   16   TIME STEP    6
 
 SOLVING FOR HEAD 
                                                   Max.-Head-Change                         Max.-Flux-Residual
  Residual-Control   Outer-Iter.   Inner-Iter.     Column Row Layer    Maximum-Head-Change  Column Row Layer    Maximum-Flux-Residual          L2-NORM 
          0                 1           2             2   13     1       0.1743471839E-01       2   13    1         0.9899470279E+00      0.2718981817E+01
          0                 2           2             8    2     1       0.2467848457E-02       2    2    1         0.1208582424E+00      0.4678104853E+00
          0                 3           2             8    2     1       0.1109186011E-02       8    2    1         0.2880570218E-01      0.1427188953E+00
          0                 4           2             8    2     1       0.4985283557E-03       8    2    1         0.1294685548E-01      0.5937730038E-01
          0                 5           2             8    2     1       0.2240654667E-03       8    2    1         0.5819018151E-02      0.2628144431E-01
          0                 6           1             8    2     1       0.1007069780E-03       8    2    1         0.2615379405E-02      0.1174360421E-01
          0                 7           1             8    2     1       0.4526304571E-04       8    2    1         0.1175490872E-02      0.5255375360E-02
          0                 8           1             8    2     1       0.2034358757E-04       8    2    1         0.5283277105E-03      0.2352534825E-02
          0                 9           1             8    2     1       0.9143466481E-05       8    2    1         0.2374581538E-03      0.1053218186E-02

    ------------------------------------------------
       NWT REQUIRED            9 OUTER ITERATIONS 
       AND A TOTAL OF         14 INNER ITERATIONS.
    ------------------------------------------------

 NO OUTPUT CONTROL FOR STRESS PERIOD   16   TIME STEP    7
 
 SOLVING FOR HEAD 
                                                   Max.-Head-Change                         Max.-Flux-Residual
  Residual-Control   Outer-Iter.   Inner-Iter.     Column Row Layer    Maximum-Head-Change  Column Row Layer    Maximum-Flux-Residual          L2-NORM 
          0                 1           2             2   13     1       0.1602492536E-01       2   13    1         0.9097762230E+00      0.2619377696E+01
          0                 2           2             8    2     1       0.2466757184E-02       2    2    1         0.1199302316E+00      0.4624179208E+00
          0                 3           2             8    2     1       0.1108695026E-02       8    2    1         0.2879296202E-01      0.1426838321E+00
          0                 4           2             8    2     1       0.4983074516E-03       8    2    1         0.1294112342E-01      0.5943207611E-01
          0                 5           2             8    2     1       0.2239660781E-03       8    2    1         0.5816439191E-02      0.2630697622E-01
          0                 6           1             8    2     1       0.1006622616E-03       8    2    1         0.2614219089E-02      0.1175468254E-01
          0                 7           1             8    2     1       0.4524292703E-04       8    2    1         0.1174968826E-02      0.5260154182E-02
          0                 8           1             8    2     1       0.2033453580E-04       8    2    1         0.5280928354E-03      0.2354596008E-02
          0                 9           1             8    2     1       0.9139394423E-05       8    2    1         0.2373524824E-03      0.1054107488E-02

    ------------------------------------------------
       NWT REQUIRED            9 OUTER ITERATIONS 
       AND A TOTAL OF         14 INNER ITERATIONS.
    ------------------------------------------------

 NO OUTPUT CONTROL FOR STRESS PERIOD   16   TIME STEP    8
 
 SOLVING FOR HEAD 
                                                   Max.-Head-Change                         Max.-Flux-Residual
  Residual-Control   Outer-Iter.   Inner-Iter.     Column Row Layer    Maximum-Head-Change  Column Row Layer    Maximum-Flux-Residual          L2-NORM 
          0                 1           2             2   13     1       0.1473095594E-01       2   13    1         0.8361946426E+00      0.2532272448E+01
          0                 2           2             8    2     1       0.2465621242E-02       2    2    1         0.1190257616E+00      0.4578029281E+00
          0                 3           2             8    2     1       0.1108184012E-02       8    2    1         0.2877970068E-01      0.1426664237E+00
          0                 4           2             8    2     1       0.4980775678E-03       8    2    1         0.1293515769E-01      0.5948530557E-01
          0                 5           2             8    2     1       0.2238626634E-03       8    2    1         0.5813755458E-02      0.2633163208E-01
          0                 6           1             8    2     1       0.1006157400E-03       8    2    1         0.2613011790E-02      0.1176535819E-01
          0                 7           1             8    2     1       0.4522199874E-04       8    2    1         0.1174425715E-02      0.5264750345E-02
          0                 8           1             8    2     1       0.2032512137E-04       8    2    1         0.5278485162E-03      0.2356575066E-02
          0                 9           1             8    2     1       0.9135159042E-05       8    2    1         0.2372425735E-03      0.1054960458E-02

    ------------------------------------------------
       NWT REQUIRED            9 OUTER ITERATIONS 
       AND A TOTAL OF         14 INNER ITERATIONS.
    ------------------------------------------------

 NO OUTPUT CONTROL FOR STRESS PERIOD   16   TIME STEP    9
 
 SOLVING FOR HEAD 
                                                   Max.-Head-Change                         Max.-Flux-Residual
  Residual-Control   Outer-Iter.   Inner-Iter.     Column Row Layer    Maximum-Head-Change  Column Row Layer    Maximum-Flux-Residual          L2-NORM 
          0                 1           2             2   13     1       0.1354336096E-01       2   13    1         0.7686634129E+00      0.2456665341E+01
          0                 2           2             8    2     1       0.2464531623E-02       2    2    1         0.1181441065E+00      0.4538857622E+00
          0                 3           2             8    2     1       0.1107693727E-02       8    2    1         0.2876697961E-01      0.1426609509E+00
          0                 4           2             8    2     1       0.4978569611E-03       8    2    1         0.1292943373E-01      0.5953533293E-01
          0                 5           2             8    2     1       0.2237633999E-03       8    2    1         0.5811179921E-02      0.2635469526E-01
          0                 6           1             8    2     1       0.1005710762E-03       8    2    1         0.2611852918E-02      0.1177532757E-01
          0                 7           1             8    2     1       0.4520190231E-04       8    2    1         0.1173904276E-02      0.5269034237E-02
          0                 8           1             8    2     1       0.2031607910E-04       8    2    1         0.5276138918E-03      0.2358415312E-02
          0                 9           1             8    2     1       0.9131089986E-05       8    2    1         0.2371370000E-03      0.1055751104E-02

    ------------------------------------------------
       NWT REQUIRED            9 OUTER ITERATIONS 
       AND A TOTAL OF         14 INNER ITERATIONS.
    ------------------------------------------------

 NO OUTPUT CONTROL FOR STRESS PERIOD   16   TIME STEP   10
 
 SOLVING FOR HEAD 
                                                   Max.-Head-Change                         Max.-Flux-Residual
  Residual-Control   Outer-Iter.   Inner-Iter.     Column Row Layer    Maximum-Head-Change  Column Row Layer    Maximum-Flux-Residual          L2-NORM 
          0                 1           2             2    2     1       0.1296473550E-01       2   13    1         0.7066859947E+00      0.2390651684E+01
          0                 2           2             8    2     1       0.2463397465E-02       2    2    1         0.1172845737E+00      0.4505080810E+00
          0                 3           2             8    2     1       0.1107183547E-02       8    2    1         0.2875373925E-01      0.1426556423E+00
          0                 4           2             8    2     1       0.4976274657E-03       8    2    1         0.1292347779E-01      0.5957860999E-01
          0                 5           2             8    2     1       0.2236601660E-03       8    2    1         0.5808500758E-02      0.2637470656E-01
          0                 6           1             8    2     1       0.1005246383E-03       8    2    1         0.2610647751E-02      0.1178398517E-01
          0                 7           1             8    2     1       0.4518101354E-04       8    2    1         0.1173362163E-02      0.5272757487E-02
          0                 8           1             8    2     1       0.2030668293E-04       8    2    1         0.5273700362E-03      0.2360017058E-02
          0                 9           1             8    2     1       0.9126863609E-05       8    2    1         0.2370273069E-03      0.1056439559E-02

    ------------------------------------------------
       NWT REQUIRED            9 OUTER ITERATIONS 
       AND A TOTAL OF         14 INNER ITERATIONS.
    ------------------------------------------------

 NO OUTPUT CONTROL FOR STRESS PERIOD   16   TIME STEP   11
 
 SOLVING FOR HEAD 
                                                   Max.-Head-Change                         Max.-Flux-Residual
  Residual-Control   Outer-Iter.   Inner-Iter.     Column Row Layer    Maximum-Head-Change  Column Row Layer    Maximum-Flux-Residual          L2-NORM 
          0                 1           2             2    2     1       0.1287140857E-01       2    2    1         0.6722044479E+00      0.2333285088E+01
          0                 2           2             8    2     1       0.2462309838E-02       2    2    1         0.1164464890E+00      0.4475973120E+00
          0                 3           2             8    2     1       0.1106694210E-02       8    2    1         0.2874104167E-01      0.1426528839E+00
          0                 4           2             8    2     1       0.4974073077E-03       8    2    1         0.1291776500E-01      0.5961816052E-01
          0                 5           2             8    2     1       0.2235611153E-03       8    2    1         0.5805930514E-02      0.2639317685E-01
          0                 6           1             8    2     1       0.1004800745E-03       8    2    1         0.2609491372E-02      0.1179202126E-01
          0                 7           1             8    2     1       0.4516096389E-04       8    2    1         0.1172841898E-02      0.5276226578E-02
          0                 8           1             8    2     1       0.2029766243E-04       8    2    1         0.5271359656E-03      0.2361511846E-02
          0                 9           1             8    2     1       0.9122805057E-05       8    2    1         0.2369220000E-03      0.1057084374E-02

    ------------------------------------------------
       NWT REQUIRED            9 OUTER ITERATIONS 
       AND A TOTAL OF         14 INNER ITERATIONS.
    ------------------------------------------------

 NO OUTPUT CONTROL FOR STRESS PERIOD   16   TIME STEP   12
 
 SOLVING FOR HEAD 
                                                   Max.-Head-Change                         Max.-Flux-Residual
  Residual-Control   Outer-Iter.   Inner-Iter.     Column Row Layer    Maximum-Head-Change  Column Row Layer    Maximum-Flux-Residual          L2-NORM 
          0                 1           2             2    2     1       0.1278040219E-01       2    2    1         0.6673913365E+00      0.2283110728E+01
          0                 2           2             8    2     1       0.2461177547E-02       2    2    1         0.1156292048E+00      0.4450493341E+00
          0                 3           2             8    2     1       0.1106184847E-02       8    2    1         0.2872782299E-01      0.1426574523E+00
          0                 4           2             8    2     1       0.4971781705E-03       8    2    1         0.1291181856E-01      0.5965762139E-01
          0                 5           2             8    2     1       0.2234580380E-03       8    2    1         0.5803255506E-02      0.2641138545E-01
          0                 6           1             8    2     1       0.1004337057E-03       8    2    1         0.2608288023E-02      0.1179987173E-01
          0                 7           1             8    2     1       0.4514010488E-04       8    2    1         0.1172300572E-02      0.5279588779E-02
          0                 8           1             8    2     1       0.2028827901E-04       8    2    1         0.5268924517E-03      0.2362951547E-02
          0                 9           1             8    2     1       0.9118584434E-05       8    2    1         0.2368124554E-03      0.1057700527E-02

    ------------------------------------------------
       NWT REQUIRED            9 OUTER ITERATIONS 
       AND A TOTAL OF         14 INNER ITERATIONS.
    ------------------------------------------------

 NO OUTPUT CONTROL FOR STRESS PERIOD   16   TIME STEP   13
 
 SOLVING FOR HEAD 
                                                   Max.-Head-Change                         Max.-Flux-Residual
  Residual-Control   Outer-Iter.   Inner-Iter.     Column Row Layer    Maximum-Head-Change  Column Row Layer    Maximum-Flux-Residual          L2-NORM 
          0                 1           2             2    2     1       0.1269164631E-01       2    2    1         0.6626976304E+00      0.2239399512E+01
          0                 2           2             8    2     1       0.2460091633E-02       2    2    1         0.1148692123E+00      0.4428402212E+00
          0                 3           2             8    2     1       0.1105696239E-02       8    2    1         0.2871514523E-01      0.1426639283E+00
          0                 4           2             8    2     1       0.4969583221E-03       8    2    1         0.1290611420E-01      0.5969439726E-01
          0                 5           2             8    2     1       0.2233591179E-03       8    2    1         0.5800688838E-02      0.2642942388E-01
          0                 6           1             8    2     1       0.1003891972E-03       8    2    1         0.2607133164E-02      0.1180819281E-01
          0                 7           1             8    2     1       0.4512007899E-04       8    2    1         0.1171780954E-02      0.5283404429E-02
          0                 8           1             8    2     1       0.2027926851E-04       8    2    1         0.5266586525E-03      0.2364700051E-02
          0                 9           1             8    2     1       0.9114530134E-05       8    2    1         0.2367072600E-03      0.1058503194E-02

    ------------------------------------------------
       NWT REQUIRED            9 OUTER ITERATIONS 
       AND A TOTAL OF         14 INNER ITERATIONS.
    ------------------------------------------------

 NO OUTPUT CONTROL FOR STRESS PERIOD   16   TIME STEP   14
 
 SOLVING FOR HEAD 
                                                   Max.-Head-Change                         Max.-Flux-Residual
  Residual-Control   Outer-Iter.   Inner-Iter.     Column Row Layer    Maximum-Head-Change  Column Row Layer    Maximum-Flux-Residual          L2-NORM 
          0                 1           2             2    2     1       0.1260972327E-01       2    2    1         0.6581245709E+00      0.2201034217E+01
          0                 2           2             8    2     1       0.2458961083E-02       2    2    1         0.1141203741E+00      0.4409272166E+00
          0                 3           2             8    2     1       0.1105187665E-02       8    2    1         0.2870194692E-01      0.1426671881E+00
          0                 4           2             8    2     1       0.4967295433E-03       8    2    1         0.1290017699E-01      0.5972477906E-01
          0                 5           2             8    2     1       0.2232562032E-03       8    2    1         0.5798018013E-02      0.2644347299E-01
          0                 6           1             8    2     1       0.1003429019E-03       8    2    1         0.2605931710E-02      0.1181422273E-01
          0                 7           1             8    2     1       0.4509925324E-04       8    2    1         0.1171240486E-02      0.5285971193E-02
          0                 8           1             8    2     1       0.2026990035E-04       8    2    1         0.5264155296E-03      0.2365791627E-02
          0                 9           1             8    2     1       0.9110316013E-05       8    2    1         0.2365978918E-03      0.1058966883E-02

    ------------------------------------------------
       NWT REQUIRED            9 OUTER ITERATIONS 
       AND A TOTAL OF         14 INNER ITERATIONS.
    ------------------------------------------------

 NO OUTPUT CONTROL FOR STRESS PERIOD   16   TIME STEP   15
 
 SOLVING FOR HEAD 
                                                   Max.-Head-Change                         Max.-Flux-Residual
  Residual-Control   Outer-Iter.   Inner-Iter.     Column Row Layer    Maximum-Head-Change  Column Row Layer    Maximum-Flux-Residual          L2-NORM 
          0                 1           2             2    2     1       0.1252943031E-01       2    2    1         0.6538819211E+00      0.2154019874E+01
          0                 2           2             8    2     1       0.2457877132E-02       2    2    1         0.1133989175E+00      0.4386611348E+00
          0                 3           2             8    2     1       0.1104699992E-02       8    2    1         0.2868929231E-01      0.1426604188E+00
          0                 4           2             8    2     1       0.4965101381E-03       8    2    1         0.1289448364E-01      0.5975189124E-01
          0                 5           2             8    2     1       0.2231574926E-03       8    2    1         0.5795456566E-02      0.2645588873E-01
          0                 6           1             8    2     1       0.1002984921E-03       8    2    1         0.2604779313E-02      0.1181948898E-01
          0                 7           1             8    2     1       0.4507927312E-04       8    2    1         0.1170722023E-02      0.5288186689E-02
          0                 8           1             8    2     1       0.2026091161E-04       8    2    1         0.5261822766E-03      0.2366722255E-02
          0                 9           1             8    2     1       0.9106271717E-05       8    2    1         0.2364929519E-03      0.1059357075E-02

    ------------------------------------------------
       NWT REQUIRED            9 OUTER ITERATIONS 
       AND A TOTAL OF         14 INNER ITERATIONS.
    ------------------------------------------------

 NO OUTPUT CONTROL FOR STRESS PERIOD   16   TIME STEP   16
 
 SOLVING FOR HEAD 
                                                   Max.-Head-Change                         Max.-Flux-Residual
  Residual-Control   Outer-Iter.   Inner-Iter.     Column Row Layer    Maximum-Head-Change  Column Row Layer    Maximum-Flux-Residual          L2-NORM 
          0                 1           2             2    2     1       0.1245099677E-01       2    2    1         0.6497378640E+00      0.2126194201E+01
          0                 2           2             8    2     1       0.2456748338E-02       2    2    1         0.1126941340E+00      0.4372608381E+00
          0                 3           2             8    2     1       0.1104192166E-02       8    2    1         0.2867611428E-01      0.1426520943E+00
          0                 4           2             8    2     1       0.4962816767E-03       8    2    1         0.1288855507E-01      0.5976965306E-01
          0                 5           2             8    2     1       0.2230547127E-03       8    2    1         0.5792789416E-02      0.2646422532E-01
          0                 6           1             8    2     1       0.1002522536E-03       8    2    1         0.2603579417E-02      0.1182303363E-01
          0                 7           1             8    2     1       0.4505847188E-04       8    2    1         0.1170182218E-02      0.5289676726E-02
          0                 8           1             8    2     1       0.2025155321E-04       8    2    1         0.5259394279E-03      0.2367347595E-02
          0                 9           1             8    2     1       0.9102062098E-05       8    2    1         0.2363837047E-03      0.1059619655E-02

    ------------------------------------------------
       NWT REQUIRED            9 OUTER ITERATIONS 
       AND A TOTAL OF         14 INNER ITERATIONS.
    ------------------------------------------------

 NO OUTPUT CONTROL FOR STRESS PERIOD   16   TIME STEP   17
 
 SOLVING FOR HEAD 
                                                   Max.-Head-Change                         Max.-Flux-Residual
  Residual-Control   Outer-Iter.   Inner-Iter.     Column Row Layer    Maximum-Head-Change  Column Row Layer    Maximum-Flux-Residual          L2-NORM 
          0                 1           2             2    2     1       0.1237436871E-01       2    2    1         0.6456895381E+00      0.2101663033E+01
          0                 2           2             8    2     1       0.2455620680E-02       2    2    1         0.1120055402E+00      0.4360128958E+00
          0                 3           2             8    2     1       0.1103684902E-02       8    2    1         0.2866294977E-01      0.1426419444E+00
          0                 4           2             8    2     1       0.4960534901E-03       8    2    1         0.1288263317E-01      0.5978414238E-01
          0                 5           2             8    2     1       0.2229520664E-03       8    2    1         0.5790125524E-02      0.2647115680E-01
          0                 6           1             8    2     1       0.1002060796E-03       8    2    1         0.2602381101E-02      0.1182599850E-01
          0                 7           1             8    2     1       0.4503770116E-04       8    2    1         0.1169643173E-02      0.5290928106E-02
          0                 8           1             8    2     1       0.2024221006E-04       8    2    1         0.5256969509E-03      0.2367874223E-02
          0                 9           1             8    2     1       0.9097858982E-05       8    2    1         0.2362746322E-03      0.1059842886E-02

    ------------------------------------------------
       NWT REQUIRED            9 OUTER ITERATIONS 
       AND A TOTAL OF         14 INNER ITERATIONS.
    ------------------------------------------------

 NO OUTPUT CONTROL FOR STRESS PERIOD   16   TIME STEP   18
 
 SOLVING FOR HEAD 
                                                   Max.-Head-Change                         Max.-Flux-Residual
  Residual-Control   Outer-Iter.   Inner-Iter.     Column Row Layer    Maximum-Head-Change  Column Row Layer    Maximum-Flux-Residual          L2-NORM 
          0                 1           2             2    2     1       0.1229957687E-01       2    2    1         0.6417384898E+00      0.2080182387E+01
          0                 2           2             8    2     1       0.2454493958E-02       2    2    1         0.1113334199E+00      0.4349075106E+00
          0                 3           2             8    2     1       0.1103178015E-02       8    2    1         0.2864979597E-01      0.1426305150E+00
          0                 4           2             8    2     1       0.4958254539E-03       8    2    1         0.1287671556E-01      0.5979805335E-01
          0                 5           2             8    2     1       0.2228494783E-03       8    2    1         0.5787463334E-02      0.2647789679E-01
          0                 6           1             8    2     1       0.1001599284E-03       8    2    1         0.2601183455E-02      0.1182890692E-01
          0                 7           1             8    2     1       0.4501693920E-04       8    2    1         0.1169104388E-02      0.5292163558E-02
          0                 8           1             8    2     1       0.2023286991E-04       8    2    1         0.5254545671E-03      0.2368396917E-02
          0                 9           1             8    2     1       0.9093657116E-05       8    2    1         0.2361655896E-03      0.1060061379E-02

    ------------------------------------------------
       NWT REQUIRED            9 OUTER ITERATIONS 
       AND A TOTAL OF         14 INNER ITERATIONS.
    ------------------------------------------------

 NO OUTPUT CONTROL FOR STRESS PERIOD   16   TIME STEP   19
 
 SOLVING FOR HEAD 
                                                   Max.-Head-Change                         Max.-Flux-Residual
  Residual-Control   Outer-Iter.   Inner-Iter.     Column Row Layer    Maximum-Head-Change  Column Row Layer    Maximum-Flux-Residual          L2-NORM 
          0                 1           2             2    2     1       0.1222648790E-01       2    2    1         0.6378776998E+00      0.2061164778E+01
          0                 2           2             8    2     1       0.2453413727E-02       2    2    1         0.1106765725E+00      0.4339501097E+00
          0                 3           2             8    2     1       0.1102691980E-02       8    2    1         0.2863718462E-01      0.1426339238E+00
          0                 4           2             8    2     1       0.4956067698E-03       8    2    1         0.1287104126E-01      0.5981566653E-01
          0                 5           2             8    2     1       0.2227510857E-03       8    2    1         0.5784910283E-02      0.2648598882E-01
          0                 6           1             8    2     1       0.1001156587E-03       8    2    1         0.2600034759E-02      0.1183232547E-01
          0                 7           1             8    2     1       0.4499702110E-04       8    2    1         0.1168587556E-02      0.5293591573E-02
          0                 8           1             8    2     1       0.2022390793E-04       8    2    1         0.5252220273E-03      0.2368992614E-02
          0                 9           1             8    2     1       0.9089625076E-05       8    2    1         0.2360609661E-03      0.1060308736E-02

    ------------------------------------------------
       NWT REQUIRED            9 OUTER ITERATIONS 
       AND A TOTAL OF         14 INNER ITERATIONS.
    ------------------------------------------------

 NO OUTPUT CONTROL FOR STRESS PERIOD   16   TIME STEP   20
 
 SOLVING FOR HEAD 
                                                   Max.-Head-Change                         Max.-Flux-Residual
  Residual-Control   Outer-Iter.   Inner-Iter.     Column Row Layer    Maximum-Head-Change  Column Row Layer    Maximum-Flux-Residual          L2-NORM 
          0                 1           2             2    2     1       0.1215505327E-01       2    2    1         0.6341046050E+00      0.2044455580E+01
          0                 2           2             8    2     1       0.2452288880E-02       2    2    1         0.1100345617E+00      0.4329837680E+00
          0                 3           2             8    2     1       0.1102185988E-02       8    2    1         0.2862405295E-01      0.1425798779E+00
          0                 4           2             8    2     1       0.4953791598E-03       8    2    1         0.1286513423E-01      0.5980469458E-01
          0                 5           2             8    2     1       0.2226487005E-03       8    2    1         0.5782253127E-02      0.2648094283E-01
          0                 6           1             8    2     1       0.1000696028E-03       8    2    1         0.2598839495E-02      0.1182976690E-01
          0                 7           1             8    2     1       0.4497630415E-04       8    2    1         0.1168049897E-02      0.5292305720E-02
          0                 8           1             8    2     1       0.2021458929E-04       8    2    1         0.5249801746E-03      0.2368355652E-02
          0                 9           1             8    2     1       0.9085433215E-05       8    2    1         0.2359521710E-03      0.1059997764E-02

    ------------------------------------------------
       NWT REQUIRED            9 OUTER ITERATIONS 
       AND A TOTAL OF         14 INNER ITERATIONS.
    ------------------------------------------------

 NO OUTPUT CONTROL FOR STRESS PERIOD   16   TIME STEP   21
 
 SOLVING FOR HEAD 
                                                   Max.-Head-Change                         Max.-Flux-Residual
  Residual-Control   Outer-Iter.   Inner-Iter.     Column Row Layer    Maximum-Head-Change  Column Row Layer    Maximum-Flux-Residual          L2-NORM 
          0                 1           2             2    2     1       0.1208530832E-01       2    2    1         0.6304210166E+00      0.2029445668E+01
          0                 2           2             8    2     1       0.2451164889E-02       2    2    1         0.1094077105E+00      0.4321681941E+00
          0                 3           2             8    2     1       0.1101680312E-02       8    2    1         0.2861093096E-01      0.1425695251E+00
          0                 4           2             8    2     1       0.4951516603E-03       8    2    1         0.1285923073E-01      0.5981541536E-01
          0                 5           2             8    2     1       0.2225463503E-03       8    2    1         0.5779597183E-02      0.2648619191E-01
          0                 6           1             8    2     1       0.1000235566E-03       8    2    1         0.2597644614E-02      0.1183198229E-01
          0                 7           1             8    2     1       0.4495558846E-04       8    2    1         0.1167512336E-02      0.5293217304E-02
          0                 8           1             8    2     1       0.2020526966E-04       8    2    1         0.5247383384E-03      0.2368727860E-02
          0                 9           1             8    2     1       0.9081240604E-05       8    2    1         0.2358433762E-03      0.1060151058E-02

    ------------------------------------------------
       NWT REQUIRED            9 OUTER ITERATIONS 
       AND A TOTAL OF         14 INNER ITERATIONS.
    ------------------------------------------------

 NO OUTPUT CONTROL FOR STRESS PERIOD   16   TIME STEP   22
 
 SOLVING FOR HEAD 
                                                   Max.-Head-Change                         Max.-Flux-Residual
  Residual-Control   Outer-Iter.   Inner-Iter.     Column Row Layer    Maximum-Head-Change  Column Row Layer    Maximum-Flux-Residual          L2-NORM 
          0                 1           2             2    2     1       0.1201712414E-01       2    2    1         0.6268201300E+00      0.2016142256E+01
          0                 2           2             8    2     1       0.2450041907E-02       2    2    1         0.1087948602E+00      0.4314594192E+00
          0                 3           2             8    2     1       0.1101175119E-02       8    2    1         0.2859782088E-01      0.1425658163E+00
          0                 4           2             8    2     1       0.4949243919E-03       8    2    1         0.1285333294E-01      0.5982655386E-01
          0                 5           2             8    2     1       0.2224441109E-03       8    2    1         0.5776943981E-02      0.2649129492E-01
          0                 6           1             8    2     1       0.9997756315E-04       8    2    1         0.2596451036E-02      0.1183405742E-01
          0                 7           1             8    2     1       0.4493489802E-04       8    2    1         0.1166975390E-02      0.5294043074E-02
          0                 8           1             8    2     1       0.2019596177E-04       8    2    1         0.5244967880E-03      0.2369052308E-02
          0                 9           1             8    2     1       0.9077053495E-05       8    2    1         0.2357347149E-03      0.1060275128E-02

    ------------------------------------------------
       NWT REQUIRED            9 OUTER ITERATIONS 
       AND A TOTAL OF         14 INNER ITERATIONS.
    ------------------------------------------------

 NO OUTPUT CONTROL FOR STRESS PERIOD   16   TIME STEP   23
 
 SOLVING FOR HEAD 
                                                   Max.-Head-Change                         Max.-Flux-Residual
  Residual-Control   Outer-Iter.   Inner-Iter.     Column Row Layer    Maximum-Head-Change  Column Row Layer    Maximum-Flux-Residual          L2-NORM 
          0                 1           2             2    2     1       0.1195045681E-01       2    2    1         0.6232996304E+00      0.2004291163E+01
          0                 2           2             8    2     1       0.2448919934E-02       2    2    1         0.1081956153E+00      0.4308153516E+00
          0                 3           2             8    2     1       0.1100670384E-02       8    2    1         0.2858472258E-01      0.1425561422E+00
          0                 4           2             8    2     1       0.4946973303E-03       8    2    1         0.1284744049E-01      0.5983319875E-01
          0                 5           2             8    2     1       0.2223419648E-03       8    2    1         0.5774293188E-02      0.2649419442E-01
          0                 6           1             8    2     1       0.9993161200E-04       8    2    1         0.2595258551E-02      0.1183512374E-01
          0                 7           1             8    2     1       0.4491422634E-04       8    2    1         0.1166438942E-02      0.5294422468E-02
          0                 8           1             8    2     1       0.2018666290E-04       8    2    1         0.5242554658E-03      0.2369184812E-02
          0                 9           1             8    2     1       0.9072870138E-05       8    2    1         0.2356261530E-03      0.1060320263E-02

    ------------------------------------------------
       NWT REQUIRED            9 OUTER ITERATIONS 
       AND A TOTAL OF         14 INNER ITERATIONS.
    ------------------------------------------------

 NO OUTPUT CONTROL FOR STRESS PERIOD   16   TIME STEP   24
 
 SOLVING FOR HEAD 
                                                   Max.-Head-Change                         Max.-Flux-Residual
  Residual-Control   Outer-Iter.   Inner-Iter.     Column Row Layer    Maximum-Head-Change  Column Row Layer    Maximum-Flux-Residual          L2-NORM 
          0                 1           2             2    2     1       0.1188526350E-01       2    2    1         0.6198572413E+00      0.1993630668E+01
          0                 2           2             8    2     1       0.2447799173E-02       2    2    1         0.1076095927E+00      0.4302017717E+00
          0                 3           2             8    2     1       0.1100166243E-02       8    2    1         0.2857163867E-01      0.1425292247E+00
          0                 4           2             8    2     1       0.4944705589E-03       8    2    1         0.1284155510E-01      0.5983196886E-01
          0                 5           2             8    2     1       0.2222399595E-03       8    2    1         0.5771645843E-02      0.2649410155E-01
          0                 6           1             8    2     1       0.9988572888E-04       8    2    1         0.2594067737E-02      0.1183507042E-01
          0                 7           1             8    2     1       0.4489358743E-04       8    2    1         0.1165903294E-02      0.5294380580E-02
          0                 8           1             8    2     1       0.2017737902E-04       8    2    1         0.5240145217E-03      0.2369156380E-02
          0                 9           1             8    2     1       0.9068694284E-05       8    2    1         0.2355177758E-03      0.1060302615E-02

    ------------------------------------------------
       NWT REQUIRED            9 OUTER ITERATIONS 
       AND A TOTAL OF         14 INNER ITERATIONS.
    ------------------------------------------------

 NO OUTPUT CONTROL FOR STRESS PERIOD   16   TIME STEP   25
 
 SOLVING FOR HEAD 
                                                   Max.-Head-Change                         Max.-Flux-Residual
  Residual-Control   Outer-Iter.   Inner-Iter.     Column Row Layer    Maximum-Head-Change  Column Row Layer    Maximum-Flux-Residual          L2-NORM 
          0                 1           2             2    2     1       0.1182158559E-01       2    2    1         0.6164950864E+00      0.1984062846E+01
          0                 2           2             8    2     1       0.2446679313E-02       2    2    1         0.1070371700E+00      0.4296484741E+00
          0                 3           2             8    2     1       0.1099662438E-02       8    2    1         0.2855856496E-01      0.1425132981E+00
          0                 4           2             8    2     1       0.4942439072E-03       8    2    1         0.1283567347E-01      0.5983546180E-01
          0                 5           2             8    2     1       0.2221379937E-03       8    2    1         0.5768999816E-02      0.2649598487E-01
          0                 6           1             8    2     1       0.9983985651E-04       8    2    1         0.2592877348E-02      0.1183582291E-01
          0                 7           1             8    2     1       0.4487295102E-04       8    2    1         0.1165367772E-02      0.5294664160E-02
          0                 8           1             8    2     1       0.2016809540E-04       8    2    1         0.5237736047E-03      0.2369259010E-02
          0                 9           1             8    2     1       0.9064517679E-05       8    2    1         0.2354093902E-03      0.1060337423E-02

    ------------------------------------------------
       NWT REQUIRED            9 OUTER ITERATIONS 
       AND A TOTAL OF         14 INNER ITERATIONS.
    ------------------------------------------------

 NO OUTPUT CONTROL FOR STRESS PERIOD   16   TIME STEP   26
 
 SOLVING FOR HEAD 
                                                   Max.-Head-Change                         Max.-Flux-Residual
  Residual-Control   Outer-Iter.   Inner-Iter.     Column Row Layer    Maximum-Head-Change  Column Row Layer    Maximum-Flux-Residual          L2-NORM 
          0                 1           2             2    2     1       0.1175929977E-01       2    2    1         0.6132066806E+00      0.1975454206E+01
          0                 2           2             8    2     1       0.2445560508E-02       2    2    1         0.1064772366E+00      0.4291521511E+00
          0                 3           2             8    2     1       0.1099159139E-02       8    2    1         0.2854550370E-01      0.1425028643E+00
          0                 4           2             8    2     1       0.4940174967E-03       8    2    1         0.1282979781E-01      0.5984054961E-01
          0                 5           2             8    2     1       0.2220361430E-03       8    2    1         0.5766356638E-02      0.2649845288E-01
          0                 6           1             8    2     1       0.9979403917E-04       8    2    1         0.2591688313E-02      0.1183679363E-01
          0                 7           1             8    2     1       0.4485234012E-04       8    2    1         0.1164832887E-02      0.5295027858E-02
          0                 8           1             8    2     1       0.2015882379E-04       8    2    1         0.5235329918E-03      0.2369390286E-02
          0                 9           1             8    2     1       0.9060347078E-05       8    2    1         0.2353011536E-03      0.1060383267E-02

    ------------------------------------------------
       NWT REQUIRED            9 OUTER ITERATIONS 
       AND A TOTAL OF         14 INNER ITERATIONS.
    ------------------------------------------------

 NO OUTPUT CONTROL FOR STRESS PERIOD   16   TIME STEP   27
 
 SOLVING FOR HEAD 
                                                   Max.-Head-Change                         Max.-Flux-Residual
  Residual-Control   Outer-Iter.   Inner-Iter.     Column Row Layer    Maximum-Head-Change  Column Row Layer    Maximum-Flux-Residual          L2-NORM 
          0                 1           2             2    2     1       0.1169844988E-01       2    2    1         0.6099942972E+00      0.1967463385E+01
          0                 2           2             8    2     1       0.2444442651E-02       2    2    1         0.1059301905E+00      0.4286668984E+00
          0                 3           2             8    2     1       0.1098656242E-02       8    2    1         0.2853245341E-01      0.1424895264E+00
          0                 4           2             8    2     1       0.4937912570E-03       8    2    1         0.1282392681E-01      0.5984425040E-01
          0                 5           2             8    2     1       0.2219343641E-03       8    2    1         0.5763715431E-02      0.2650031392E-01
          0                 6           1             8    2     1       0.9974825209E-04       8    2    1         0.2590500110E-02      0.1183750067E-01
          0                 7           1             8    2     1       0.4483174197E-04       8    2    1         0.1164298350E-02      0.5295278267E-02
          0                 8           1             8    2     1       0.2014955742E-04       8    2    1         0.5232925214E-03      0.2369473082E-02
          0                 9           1             8    2     1       0.9056178477E-05       8    2    1         0.2351929742E-03      0.1060407419E-02

    ------------------------------------------------
       NWT REQUIRED            9 OUTER ITERATIONS 
       AND A TOTAL OF         14 INNER ITERATIONS.
    ------------------------------------------------

 NO OUTPUT CONTROL FOR STRESS PERIOD   16   TIME STEP   28
 
 SOLVING FOR HEAD 
                                                   Max.-Head-Change                         Max.-Flux-Residual
  Residual-Control   Outer-Iter.   Inner-Iter.     Column Row Layer    Maximum-Head-Change  Column Row Layer    Maximum-Flux-Residual          L2-NORM 
          0                 1           2             2    2     1       0.1163891491E-01       2    2    1         0.6068515706E+00      0.1960496080E+01
          0                 2           2             8    2     1       0.2443325873E-02       2    2    1         0.1053949416E+00      0.4282584306E+00
          0                 3           2             8    2     1       0.1098153861E-02       8    2    1         0.2851941585E-01      0.1424780466E+00
          0                 4           2             8    2     1       0.4935652624E-03       8    2    1         0.1281806188E-01      0.5984697674E-01
          0                 5           2             8    2     1       0.2218327017E-03       8    2    1         0.5761077116E-02      0.2650165681E-01
          0                 6           1             8    2     1       0.9970252029E-04       8    2    1         0.2589313280E-02      0.1183797980E-01
          0                 7           1             8    2     1       0.4481116984E-04       8    2    1         0.1163764462E-02      0.5295429523E-02
          0                 8           1             8    2     1       0.2014030356E-04       8    2    1         0.5230523566E-03      0.2369513733E-02
          0                 9           1             8    2     1       0.9052015629E-05       8    2    1         0.2350849340E-03      0.1060414024E-02

    ------------------------------------------------
       NWT REQUIRED            9 OUTER ITERATIONS 
       AND A TOTAL OF         14 INNER ITERATIONS.
    ------------------------------------------------

 NO OUTPUT CONTROL FOR STRESS PERIOD   16   TIME STEP   29
 
 SOLVING FOR HEAD 
                                                   Max.-Head-Change                         Max.-Flux-Residual
  Residual-Control   Outer-Iter.   Inner-Iter.     Column Row Layer    Maximum-Head-Change  Column Row Layer    Maximum-Flux-Residual          L2-NORM 
          0                 1           2             4   13     1      -0.1085250938E-01       4   13    1        -0.6316883981E+00      0.2045869659E+01
          0                 2           2             8    2     1       0.2442210068E-02       1    1    1         0.8595273036E-01      0.4209174520E+00
          0                 3           2             8    2     1       0.1097651894E-02       8    2    1         0.2850638953E-01      0.1411239227E+00
          0                 4           2             8    2     1       0.4933394439E-03       8    2    1         0.1281220175E-01      0.5968039465E-01
          0                 5           2             8    2     1       0.2217311141E-03       8    2    1         0.5758440838E-02      0.2646450879E-01
          0                 6           1             8    2     1       0.9965681950E-04       8    2    1         0.2588127311E-02      0.1182414245E-01
          0                 7           1             8    2     1       0.4479061121E-04       8    2    1         0.1163230942E-02      0.5289501288E-02
          0                 8           1             8    2     1       0.2013105471E-04       8    2    1         0.5228123452E-03      0.2366907883E-02
          0                 9           1             8    2     1       0.9047855031E-05       8    2    1         0.2349769672E-03      0.1059262619E-02

    ------------------------------------------------
       NWT REQUIRED            9 OUTER ITERATIONS 
       AND A TOTAL OF         14 INNER ITERATIONS.
    ------------------------------------------------

 NO OUTPUT CONTROL FOR STRESS PERIOD   16   TIME STEP   30



 STREAM LISTING     PERIOD     16   STEP       30

 LAYER ROW COL. STREAM  RCH.  FLOW INTO     FLOW TO   FLOW OUT OF   OVRLND.     DIRECT     STREAM       STREAM     STREAM     STREAM   STREAMBED  STREAMBED
                SEG.NO.  NO.  STRM. RCH.    AQUIFER    STRM. RCH.    RUNOFF     PRECIP       ET          HEAD       DEPTH      WIDTH   CONDCTNC.   GRADIENT

   1    1    1     1     1    6.3479E+01  3.8401E-01   6.3095E+01  0.000E+00  0.000E+00  0.000E+00  1.09461E+03  1.567E+00  1.868E+01  8.408E-02  1.522E+00
   1    2    2     1     2    6.3095E+01  5.9473E-01   6.2501E+01  0.000E+00  0.000E+00  0.000E+00  1.08962E+03  1.561E+00  1.863E+01  1.304E-01  1.520E+00
   1    3    3     1     3    6.2501E+01  5.0724E-01   6.1993E+01  0.000E+00  0.000E+00  0.000E+00  1.08397E+03  1.555E+00  1.856E+01  1.114E-01  1.518E+00
   1    3    4     1     4    6.1993E+01  4.6712E-01   6.1526E+01  0.000E+00  0.000E+00  0.000E+00  1.07896E+03  1.549E+00  1.850E+01  1.027E-01  1.516E+00
   1    4    5     2     1    5.9526E+01  0.0000E+00   5.9526E+01  0.000E+00  0.000E+00  0.000E+00  1.07397E+03  2.032E+00  1.200E+01  0.000E+00  1.677E+00
   1    5    6     2     2    5.9526E+01  0.0000E+00   5.9526E+01  0.000E+00  0.000E+00  0.000E+00  1.06854E+03  2.032E+00  1.200E+01  0.000E+00  1.677E+00
   1    6    6     2     3    5.9526E+01  0.0000E+00   5.9526E+01  0.000E+00  0.000E+00  0.000E+00  1.06382E+03  2.032E+00  1.200E+01  0.000E+00  1.677E+00
   1    7    6     2     4    5.9526E+01  0.0000E+00   5.9526E+01  0.000E+00  0.000E+00  0.000E+00  1.05911E+03  2.032E+00  1.200E+01  0.000E+00  1.677E+00
   1    8    6     2     5    5.9526E+01  0.0000E+00   5.9526E+01  0.000E+00  0.000E+00  0.000E+00  1.05439E+03  2.032E+00  1.200E+01  0.000E+00  1.677E+00
   1    3    5     3     1    2.0000E+00  2.8252E-01   1.7175E+00  0.000E+00  0.000E+00  0.000E+00  1.07555E+03  1.909E+00  9.636E+00  7.227E-02  1.955E+00
   1    3    6     3     2    1.7175E+00  2.4905E-01   1.4684E+00  0.000E+00  0.000E+00  0.000E+00  1.07264E+03  1.727E+00  8.909E+00  6.682E-02  1.864E+00
   1    3    7     3     3    1.4684E+00  1.9718E-01   1.2712E+00  0.000E+00  0.000E+00  0.000E+00  1.06987E+03  1.555E+00  8.218E+00  5.547E-02  1.777E+00
   1    4    8     3     4    1.2712E+00  2.2567E-01   1.0456E+00  0.000E+00  0.000E+00  0.000E+00  1.06682E+03  1.364E+00  7.455E+00  6.709E-02  1.682E+00
   1    5    8     3     5    1.0456E+00  1.5790E-01   8.8768E-01  0.000E+00  0.000E+00  0.000E+00  1.06362E+03  1.164E+00  6.655E+00  4.991E-02  1.582E+00
   1    6    8     3     6    8.8768E-01  5.5980E-02   8.3170E-01  0.000E+00  0.000E+00  0.000E+00  1.06158E+03  1.036E+00  6.145E+00  1.844E-02  1.518E+00
   1    5   10     4     1    1.0000E+01  0.0000E+00   1.0000E+01  0.000E+00  0.000E+00  0.000E+00  1.07837E+03  6.385E-01  1.000E+01  0.000E+00  1.213E+00
   1    5    9     4     2    1.0000E+01  0.0000E+00   1.0000E+01  0.000E+00  0.000E+00  0.000E+00  1.07155E+03  6.385E-01  1.000E+01  0.000E+00  1.213E+00
   1    6    8     4     3    1.0000E+01  0.0000E+00   1.0000E+01  0.000E+00  0.000E+00  0.000E+00  1.06382E+03  6.385E-01  1.000E+01  0.000E+00  1.213E+00
   1    6    8     5     1    1.0832E+01  2.3262E-01   1.0599E+01  0.000E+00  0.000E+00  0.000E+00  1.05869E+03  6.881E-01  1.577E+01  6.307E-02  1.229E+00
   1    7    7     5     2    1.0599E+01  2.8607E-01   1.0313E+01  0.000E+00  0.000E+00  0.000E+00  1.05418E+03  6.822E-01  1.554E+01  7.769E-02  1.227E+00
   1    8    7     5     3    1.0313E+01  1.9716E-01   1.0116E+01  0.000E+00  0.000E+00  0.000E+00  1.04993E+03  6.766E-01  1.532E+01  5.363E-02  1.226E+00
   1    8    6     5     4    1.0116E+01  1.3929E-01   9.9766E+00  0.000E+00  0.000E+00  0.000E+00  1.04692E+03  6.727E-01  1.517E+01  3.792E-02  1.224E+00
   1    9    6     6     1    6.9503E+01  0.0000E+00   6.9503E+01  0.000E+00  0.000E+00  0.000E+00  1.04498E+03  2.255E+00  1.200E+01  0.000E+00  1.752E+00
   1   10    7     6     2    6.9503E+01  0.0000E+00   6.9503E+01  0.000E+00  0.000E+00  0.000E+00  1.04044E+03  2.255E+00  1.200E+01  0.000E+00  1.752E+00
   1   11    7     6     3    6.9503E+01  0.0000E+00   6.9503E+01  0.000E+00  0.000E+00  0.000E+00  1.03589E+03  2.255E+00  1.200E+01  0.000E+00  1.752E+00
   1   12    7     6     4    6.9503E+01  0.0000E+00   6.9503E+01  0.000E+00  0.000E+00  0.000E+00  1.03135E+03  2.255E+00  1.200E+01  0.000E+00  1.752E+00
   1   13    7     6     5    6.9503E+01  0.0000E+00   6.9503E+01  0.000E+00  0.000E+00  0.000E+00  1.02816E+03  2.255E+00  1.200E+01  0.000E+00  4.978E-01
   1   14    9     7     1    1.5000E+02  1.2689E+00   1.4873E+02  0.000E+00  0.000E+00  0.000E+00  1.03987E+03  2.288E+00  5.530E+01  5.593E-01  7.562E-01
   1   13    8     7     2    1.4873E+02  1.8991E+00   1.4683E+02  0.000E+00  0.000E+00  0.000E+00  1.03478E+03  2.279E+00  5.526E+01  6.148E-01  1.030E+00
   1   13    7     7     3    1.4683E+02  1.6855E+00   1.4515E+02  0.000E+00  0.000E+00  0.000E+00  1.02969E+03  2.270E+00  5.521E+01  5.584E-01  1.006E+00
   1   13    6     8     1    2.1465E+02  1.2730E+00   2.1338E+02  0.000E+00  0.000E+00  0.000E+00  1.02509E+03  3.218E+00  4.667E+01  4.756E-01  8.923E-01
   1   13    5     8     2    2.1338E+02  4.0692E-01   2.1297E+02  0.000E+00  0.000E+00  0.000E+00  1.01884E+03  3.214E+00  4.660E+01  4.749E-01  2.856E-01
   1   13    4     8     3    2.1297E+02 -2.3852E+00   2.1535E+02  0.000E+00  0.000E+00  0.000E+00  1.01259E+03  3.219E+00  4.668E+01  4.757E+00 -1.671E-01
   1   13    3     8     4    2.1535E+02 -3.9984E+00   2.1935E+02  0.000E+00  0.000E+00  0.000E+00  1.00636E+03  3.237E+00  4.694E+01  4.783E+00 -2.786E-01
   1   13    2     8     5    2.1935E+02 -3.0825E+00   2.2244E+02  0.000E+00  0.000E+00  0.000E+00  1.00013E+03  3.257E+00  4.722E+01  4.812E+00 -2.135E-01
   1   13    1     8     6    2.2244E+02 -2.1875E+00   2.2462E+02  0.000E+00  0.000E+00  0.000E+00  9.95146E+02  3.271E+00  4.743E+01  2.900E+00 -2.514E-01
   1    6    8     9     1    0.0000E+00  0.0000E+00   0.0000E+00  0.000E+00  0.000E+00  0.000E+00  1.07850E+03  0.000E+00  4.000E+00  0.000E+00  1.000E+00





UNSATURATED ZONE PACKAGE VOLUMETRIC BUDGET FOR  TIME STEP    30 STRESS PERIOD   16
  ------------------------------------------------------------------------------



     CUMULATIVE VOLUMES      L**3       RATES FOR THIS TIME STEP      L**3/T
     ------------------                 ------------------------

           IN:                                      IN:
           ---                                      ---
        INFILTRATION =    53669114.2819          INFILTRATION =           0.8475

          OUT:                                     OUT:
          ----                                     ----
              UZF ET =   577373089.3433                UZF ET =           1.2823
        UZF RECHARGE =   989042697.5492          UZF RECHARGE =          22.8288

            IN - OUT = -1512746672.6106              IN - OUT =         -23.2636

          STORAGE:                                 STORAGE:
          --------                                 --------
      STORAGE CHANGE = -1512737993.0916        STORAGE CHANGE =         -23.2636

 PERCENT DISCREPANCY IS DIFFERENCE BETWEEN IN-OUT MINUS CHANGE IN STORAGE
 DIVIDED BY THE AVERAGE OF IN AND OUT TIMES 100

 PERCENT DISCREPANCY =          -0.00     PERCENT DISCREPANCY =           0.00






1
  VOLUMETRIC BUDGET FOR ENTIRE MODEL AT END OF TIME STEP   30, STRESS PERIOD  16
  ------------------------------------------------------------------------------

     CUMULATIVE VOLUMES      L**3       RATES FOR THIS TIME STEP      L**3/T
     ------------------                 ------------------------

           IN:                                      IN:
           ---                                      ---
             STORAGE =    28752640.0000               STORAGE =           1.7561
       CONSTANT HEAD =           0.0000         CONSTANT HEAD =           0.0000
               WELLS =           0.0000                 WELLS =           0.0000
     HEAD DEP BOUNDS =    11935442.0000       HEAD DEP BOUNDS =           0.2812
      STREAM LEAKAGE =   423985632.0000        STREAM LEAKAGE =          10.5099
        UZF RECHARGE =   989042112.0000          UZF RECHARGE =          22.8288
               GW ET =           0.0000                 GW ET =           0.0000
     SURFACE LEAKAGE =           0.0000       SURFACE LEAKAGE =           0.0000

            TOTAL IN =  1453715840.0000              TOTAL IN =          35.3760

          OUT:                                     OUT:
          ----                                     ----
             STORAGE =  1017621440.0000               STORAGE =          23.2885
       CONSTANT HEAD =           0.0000         CONSTANT HEAD =           0.0000
               WELLS =     1016027.8750                 WELLS =           0.0000
     HEAD DEP BOUNDS =    12087390.0000       HEAD DEP BOUNDS =           0.3002
      STREAM LEAKAGE =   351661568.0000        STREAM LEAKAGE =          11.6536
        UZF RECHARGE =           0.0000          UZF RECHARGE =           0.0000
               GW ET =    71226568.0000                 GW ET =           0.1304
     SURFACE LEAKAGE =           0.0000       SURFACE LEAKAGE =           0.0000

           TOTAL OUT =  1453613056.0000             TOTAL OUT =          35.3727

            IN - OUT =      102784.0000              IN - OUT =       3.3073E-03

 PERCENT DISCREPANCY =           0.01     PERCENT DISCREPANCY =           0.01






         TIME SUMMARY AT END OF TIME STEP   30 IN STRESS PERIOD   16
                    SECONDS     MINUTES      HOURS       DAYS        YEARS
                    -----------------------------------------------------------
   TIME STEP LENGTH  87600.      1460.0      24.333      1.0139     2.77588E-03
 STRESS PERIOD TIME 2.62800E+06  43800.      730.00      30.417     8.32763E-02
         TOTAL TIME 4.20480E+07 7.00800E+05  11680.      486.67      1.3324    
1
1
                            STRESS PERIOD NO.   17, LENGTH =   2628000.    
                            -----------------------------------------------

                              NUMBER OF TIME STEPS =    30

                               MULTIPLIER FOR DELT =     1.000

                            INITIAL TIME STEP SIZE =   87600.00    

 WELL NO.  LAYER   ROW   COL   STRESS RATE         
 --------------------------------------------------
      1      1      6      4       0.000    
      2      1      6      7       0.000    
      3      1      7      4       0.000    
      4      1      7      5       0.000    
      5      1      8      4       0.000    
      6      1      8      5       0.000    
      7      1      9      4       0.000    
      8      1      9      5       0.000    
      9      1     10      4       0.000    
     10      1     10      5       0.000    

     10 WELLS

 REUSING NON-PARAMETER GHB CELLS FROM LAST STRESS PERIOD

      2 GHB CELLS

 REUSING STREAM SEGMENT DATA FROM LAST STRESS PERIOD



            AREAL INFILTRATION RATE
 READING ON UNIT   19 WITH FORMAT: (10F4.0)            

            1           2           3           4           5           6           7           8           9          10
 ........................................................................................................................
   1   1.0000E-10  2.0000E-10   0.000       0.000       0.000       0.000       0.000       0.000       0.000       0.000    
   2   2.0000E-10  1.0000E-10  2.0000E-10   0.000       0.000      8.0000E-10  8.0000E-10  5.0000E-10   0.000       0.000    
   3    0.000      5.0000E-10  1.0000E-10  1.0000E-10  8.0000E-10  8.0000E-10  5.0000E-10  5.0000E-10   0.000       0.000    
   4   8.0000E-10  5.0000E-10  1.0000E-10  1.0000E-10  1.0000E-10  1.0000E-10  1.0000E-10  1.0000E-10  2.0000E-10   0.000    
   5   8.0000E-10  5.0000E-10  1.0000E-10  1.0000E-10  1.0000E-10  1.0000E-10  1.0000E-10  1.0000E-10  1.0000E-10  1.0000E-10
   6   8.0000E-10  5.0000E-10  5.0000E-10  2.0000E-10  2.0000E-10  1.0000E-10  1.0000E-10  1.0000E-10  1.0000E-10  5.0000E-10
   7   8.0000E-10  5.0000E-10  5.0000E-10  2.0000E-10  2.0000E-10  1.0000E-10  1.0000E-10  2.0000E-10  2.0000E-10   0.000    
   8    0.000      5.0000E-10  5.0000E-10  2.0000E-10  2.0000E-10  1.0000E-10  1.0000E-10  2.0000E-10  5.0000E-10   0.000    
   9    0.000      5.0000E-10  5.0000E-10  2.0000E-10  2.0000E-10  1.0000E-10  1.0000E-10  2.0000E-10  5.0000E-10   0.000    
  10    0.000      5.0000E-10  5.0000E-10  2.0000E-10  2.0000E-10  1.0000E-10  1.0000E-10  2.0000E-10  5.0000E-10  8.0000E-10
  11    0.000      1.0000E-10  1.0000E-10  1.0000E-10  1.0000E-10  1.0000E-10  1.0000E-10  2.0000E-10  5.0000E-10   0.000    
  12   1.0000E-10  1.0000E-10  1.0000E-10  1.0000E-10  1.0000E-10  1.0000E-10  1.0000E-10  1.0000E-10  2.0000E-10   0.000    
  13   1.0000E-10  1.0000E-10  2.0000E-10  2.0000E-10  2.0000E-10  2.0000E-10  2.0000E-10  1.0000E-10  1.0000E-10   0.000    
  14    0.000      2.0000E-10  5.0000E-10  5.0000E-10  5.0000E-10  5.0000E-10  5.0000E-10  2.0000E-10  1.0000E-10   0.000    
  15    0.000       0.000      8.0000E-10  8.0000E-10  8.0000E-10  8.0000E-10   0.000       0.000       0.000       0.000    

                  ET RATE =  5.000000E-09

 USING ET EXTINCTION DEPTH FROM PREVIOUS STRESS PERIOD. CURRENT PERIOD IS:      17

 USING EXTINCTION WATER CONTENT FROM PREVIOUS STRESS PERIOD. CURRENT PERIOD IS:      17
 
 SOLVING FOR HEAD 
                                                   Max.-Head-Change                         Max.-Flux-Residual
  Residual-Control   Outer-Iter.   Inner-Iter.     Column Row Layer    Maximum-Head-Change  Column Row Layer    Maximum-Flux-Residual          L2-NORM 
          0                 1           2             4   13     1      -0.2208338318E-01       4   13    1        -0.1273259674E+01      0.2702627678E+01
          0                 2           2             8    2     1       0.2441049777E-02       4   13    1         0.1262173008E+00      0.4456000027E+00
          0                 3           2             8    2     1       0.1097130011E-02       8    2    1         0.2849284433E-01      0.1405395061E+00
          0                 4           2             8    2     1       0.4931047092E-03       8    2    1         0.1280610930E-01      0.5947447544E-01
          0                 5           2             8    2     1       0.2216255342E-03       8    2    1         0.5755700550E-02      0.2640000008E-01
          0                 6           1             8    2     1       0.9960933191E-04       8    2    1         0.2586894783E-02      0.1179783254E-01
          0                 7           1             8    2     1       0.4476925223E-04       8    2    1         0.1162676574E-02      0.5278053611E-02
          0                 8           1             8    2     1       0.2012144769E-04       8    2    1         0.5225630014E-03      0.2361868600E-02
          0                 9           1             8    2     1       0.9043534363E-05       8    2    1         0.2348648214E-03      0.1057038885E-02

    ------------------------------------------------
       NWT REQUIRED            9 OUTER ITERATIONS 
       AND A TOTAL OF         14 INNER ITERATIONS.
    ------------------------------------------------

 NO OUTPUT CONTROL FOR STRESS PERIOD   17   TIME STEP    1
 
 SOLVING FOR HEAD 
                                                   Max.-Head-Change                         Max.-Flux-Residual
  Residual-Control   Outer-Iter.   Inner-Iter.     Column Row Layer    Maximum-Head-Change  Column Row Layer    Maximum-Flux-Residual          L2-NORM 
          0                 1           2             4   13     1      -0.1991719713E-01       4   13    1        -0.1147977014E+01      0.2563704161E+01
          0                 2           2             8    2     1       0.2439936331E-02       4   13    1         0.1137875616E+00      0.4372648099E+00
          0                 3           2             8    2     1       0.1096629114E-02       8    2    1         0.2847984560E-01      0.1400905656E+00
          0                 4           2             8    2     1       0.4928793749E-03       8    2    1         0.1280026167E-01      0.5935706376E-01
          0                 5           2             8    2     1       0.2215241659E-03       8    2    1         0.5753069936E-02      0.2634967557E-01
          0                 6           1             8    2     1       0.9956373067E-04       8    2    1         0.2585711379E-02      0.1177580688E-01
          0                 7           1             8    2     1       0.4474873837E-04       8    2    1         0.1162144216E-02      0.5268397144E-02
          0                 8           1             8    2     1       0.2011221984E-04       8    2    1         0.5223235202E-03      0.2357629494E-02
          0                 9           1             8    2     1       0.9039383020E-05       8    2    1         0.2347570890E-03      0.1055176140E-02

    ------------------------------------------------
       NWT REQUIRED            9 OUTER ITERATIONS 
       AND A TOTAL OF         14 INNER ITERATIONS.
    ------------------------------------------------

 NO OUTPUT CONTROL FOR STRESS PERIOD   17   TIME STEP    2
 
 SOLVING FOR HEAD 
                                                   Max.-Head-Change                         Max.-Flux-Residual
  Residual-Control   Outer-Iter.   Inner-Iter.     Column Row Layer    Maximum-Head-Change  Column Row Layer    Maximum-Flux-Residual          L2-NORM 
          0                 1           2             4   13     1      -0.1796964805E-01       4   13    1        -0.1035374900E+01      0.2441546417E+01
          0                 2           2             8    2     1       0.2438823824E-02       4   13    1         0.1026180543E+00      0.4301517091E+00
          0                 3           2             8    2     1       0.1096128622E-02       8    2    1         0.2846685775E-01      0.1397052724E+00
          0                 4           2             8    2     1       0.4926542164E-03       8    2    1         0.1279441874E-01      0.5925569798E-01
          0                 5           2             8    2     1       0.2214228735E-03       8    2    1         0.5750441353E-02      0.2630630403E-01
          0                 6           1             8    2     1       0.9951816244E-04       8    2    1         0.2584528856E-02      0.1175683051E-01
          0                 7           1             8    2     1       0.4472823852E-04       8    2    1         0.1161612233E-02      0.5260075886E-02
          0                 8           1             8    2     1       0.2010299775E-04       8    2    1         0.5220842026E-03      0.2353977006E-02
          0                 9           1             8    2     1       0.9035234428E-05       8    2    1         0.2346494295E-03      0.1053571865E-02

    ------------------------------------------------
       NWT REQUIRED            9 OUTER ITERATIONS 
       AND A TOTAL OF         14 INNER ITERATIONS.
    ------------------------------------------------

 NO OUTPUT CONTROL FOR STRESS PERIOD   17   TIME STEP    3
 
 SOLVING FOR HEAD 
                                                   Max.-Head-Change                         Max.-Flux-Residual
  Residual-Control   Outer-Iter.   Inner-Iter.     Column Row Layer    Maximum-Head-Change  Column Row Layer    Maximum-Flux-Residual          L2-NORM 
          0                 1           2             4   13     1      -0.1621803322E-01       4   13    1        -0.9341336494E+00      0.2334253724E+01
          0                 2           2             8    2     1       0.2437666755E-02       4   13    1         0.9257536371E-01      0.4240506617E+00
          0                 3           2             8    2     1       0.1095608173E-02       8    2    1         0.2845335009E-01      0.1393623273E+00
          0                 4           2             8    2     1       0.4924201198E-03       8    2    1         0.1278834300E-01      0.5916230868E-01
          0                 5           2             8    2     1       0.2213175775E-03       8    2    1         0.5747708497E-02      0.2626619664E-01
          0                 6           1             8    2     1       0.9947080091E-04       8    2    1         0.2583299629E-02      0.1173923678E-01
          0                 7           1             8    2     1       0.4470693606E-04       8    2    1         0.1161059334E-02      0.5252339693E-02
          0                 8           1             8    2     1       0.2009341600E-04       8    2    1         0.5218355062E-03      0.2350564860E-02
          0                 9           1             8    2     1       0.9030924265E-05       8    2    1         0.2345375638E-03      0.1052063934E-02

    ------------------------------------------------
       NWT REQUIRED            9 OUTER ITERATIONS 
       AND A TOTAL OF         14 INNER ITERATIONS.
    ------------------------------------------------

 NO OUTPUT CONTROL FOR STRESS PERIOD   17   TIME STEP    4
 
 SOLVING FOR HEAD 
                                                   Max.-Head-Change                         Max.-Flux-Residual
  Residual-Control   Outer-Iter.   Inner-Iter.     Column Row Layer    Maximum-Head-Change  Column Row Layer    Maximum-Flux-Residual          L2-NORM 
          0                 1           2             2   13     1      -0.1487987799E-01       4   13    1        -0.8430716454E+00      0.2240536703E+01
          0                 2           2             8    2     1       0.2436556600E-02       4   13    1         0.8354450288E-01      0.4188606999E+00
          0                 3           2             8    2     1       0.1095108767E-02       8    2    1         0.2844038983E-01      0.1390551831E+00
          0                 4           2             8    2     1       0.4921954623E-03       8    2    1         0.1278251281E-01      0.5907444009E-01
          0                 5           2             8    2     1       0.2212165158E-03       8    2    1         0.5745085790E-02      0.2622826042E-01
          0                 6           1             8    2     1       0.9942533897E-04       8    2    1         0.2582119812E-02      0.1172256421E-01
          0                 7           1             8    2     1       0.4468648523E-04       8    2    1         0.1160528600E-02      0.5244997254E-02
          0                 8           1             8    2     1       0.2008421616E-04       8    2    1         0.5215967619E-03      0.2347329620E-02
          0                 9           1             8    2     1       0.9026786177E-05       8    2    1         0.2344301711E-03      0.1050636106E-02

    ------------------------------------------------
       NWT REQUIRED            9 OUTER ITERATIONS 
       AND A TOTAL OF         14 INNER ITERATIONS.
    ------------------------------------------------

 NO OUTPUT CONTROL FOR STRESS PERIOD   17   TIME STEP    5
 
 SOLVING FOR HEAD 
                                                   Max.-Head-Change                         Max.-Flux-Residual
  Residual-Control   Outer-Iter.   Inner-Iter.     Column Row Layer    Maximum-Head-Change  Column Row Layer    Maximum-Flux-Residual          L2-NORM 
          0                 1           2             2   13     1      -0.1374671105E-01       2   13    1        -0.7755636139E+00      0.2158529915E+01
          0                 2           2             8    2     1       0.2435447615E-02       4   13    1         0.7541893944E-01      0.4143948640E+00
          0                 3           2             8    2     1       0.1094609918E-02       8    2    1         0.2842744337E-01      0.1387757609E+00
          0                 4           2             8    2     1       0.4919710686E-03       8    2    1         0.1277668918E-01      0.5899164152E-01
          0                 5           2             8    2     1       0.2211155795E-03       8    2    1         0.5742466194E-02      0.2619241679E-01
          0                 6           1             8    2     1       0.9937993582E-04       8    2    1         0.2580941461E-02      0.1170679856E-01
          0                 7           1             8    2     1       0.4466606191E-04       8    2    1         0.1159998553E-02      0.5238051455E-02
          0                 8           1             8    2     1       0.2007502933E-04       8    2    1         0.5213583359E-03      0.2344266061E-02
          0                 9           1             8    2     1       0.9022653843E-05       8    2    1         0.2343229239E-03      0.1049283397E-02

    ------------------------------------------------
       NWT REQUIRED            9 OUTER ITERATIONS 
       AND A TOTAL OF         14 INNER ITERATIONS.
    ------------------------------------------------

 NO OUTPUT CONTROL FOR STRESS PERIOD   17   TIME STEP    6
 
 SOLVING FOR HEAD 
                                                   Max.-Head-Change                         Max.-Flux-Residual
  Residual-Control   Outer-Iter.   Inner-Iter.     Column Row Layer    Maximum-Head-Change  Column Row Layer    Maximum-Flux-Residual          L2-NORM 
          0                 1           2             2   13     1      -0.1270079566E-01       2   13    1        -0.7164786687E+00      0.2087422373E+01
          0                 2           2             8    2     1       0.2434293875E-02       3    2    1         0.7033585199E-01      0.4106140216E+00
          0                 3           2             8    2     1       0.1094090931E-02       8    2    1         0.2841397441E-01      0.1385239280E+00
          0                 4           2             8    2     1       0.4917376137E-03       8    2    1         0.1277063043E-01      0.5891271047E-01
          0                 5           2             8    2     1       0.2210105652E-03       8    2    1         0.5739740801E-02      0.2615803150E-01
          0                 6           1             8    2     1       0.9933269784E-04       8    2    1         0.2579715514E-02      0.1169165077E-01
          0                 7           1             8    2     1       0.4464481348E-04       8    2    1         0.1159447099E-02      0.5231372578E-02
          0                 8           1             8    2     1       0.2006547159E-04       8    2    1         0.5211102843E-03      0.2341318340E-02
          0                 9           1             8    2     1       0.9018354684E-05       8    2    1         0.2342113481E-03      0.1047981172E-02

    ------------------------------------------------
       NWT REQUIRED            9 OUTER ITERATIONS 
       AND A TOTAL OF         14 INNER ITERATIONS.
    ------------------------------------------------

 NO OUTPUT CONTROL FOR STRESS PERIOD   17   TIME STEP    7
 
 SOLVING FOR HEAD 
                                                   Max.-Head-Change                         Max.-Flux-Residual
  Residual-Control   Outer-Iter.   Inner-Iter.     Column Row Layer    Maximum-Head-Change  Column Row Layer    Maximum-Flux-Residual          L2-NORM 
          0                 1           2             2   13     1      -0.1173546430E-01       2   13    1        -0.6619507573E+00      0.2025437951E+01
          0                 2           2             8    2     1       0.2433187129E-02       3    2    1         0.6990480143E-01      0.4073383629E+00
          0                 3           2             8    2     1       0.1093593071E-02       8    2    1         0.2840105401E-01      0.1382825254E+00
          0                 4           2             8    2     1       0.4915136568E-03       8    2    1         0.1276481830E-01      0.5883285718E-01
          0                 5           2             8    2     1       0.2209098212E-03       8    2    1         0.5737126280E-02      0.2612292648E-01
          0                 6           1             8    2     1       0.9928737972E-04       8    2    1         0.2578539406E-02      0.1167609380E-01
          0                 7           1             8    2     1       0.4462442768E-04       8    2    1         0.1158918044E-02      0.5224480395E-02
          0                 8           1             8    2     1       0.2005630177E-04       8    2    1         0.5208723010E-03      0.2338264972E-02
          0                 9           1             8    2     1       0.9014229603E-05       8    2    1         0.2341042926E-03      0.1046628107E-02

    ------------------------------------------------
       NWT REQUIRED            9 OUTER ITERATIONS 
       AND A TOTAL OF         14 INNER ITERATIONS.
    ------------------------------------------------

 NO OUTPUT CONTROL FOR STRESS PERIOD   17   TIME STEP    8
 
 SOLVING FOR HEAD 
                                                   Max.-Head-Change                         Max.-Flux-Residual
  Residual-Control   Outer-Iter.   Inner-Iter.     Column Row Layer    Maximum-Head-Change  Column Row Layer    Maximum-Flux-Residual          L2-NORM 
          0                 1           2             2   13     1      -0.1084494219E-01       2   13    1        -0.6116213008E+00      0.1971608918E+01
          0                 2           2             8    2     1       0.2432035655E-02       3    2    1         0.6949026253E-01      0.4044496938E+00
          0                 3           2             8    2     1       0.1093075111E-02       8    2    1         0.2838761154E-01      0.1380202901E+00
          0                 4           2             8    2     1       0.4912806676E-03       8    2    1         0.1275877157E-01      0.5874084334E-01
          0                 5           2             8    2     1       0.2208050187E-03       8    2    1         0.5734406341E-02      0.2608326464E-01
          0                 6           1             8    2     1       0.9924023779E-04       8    2    1         0.2577315924E-02      0.1165886708E-01
          0                 7           1             8    2     1       0.4460322226E-04       8    2    1         0.1158367698E-02      0.5216977272E-02
          0                 8           1             8    2     1       0.2004676328E-04       8    2    1         0.5206247479E-03      0.2335001273E-02
          0                 9           1             8    2     1       0.9009939448E-05       8    2    1         0.2339929426E-03      0.1045226456E-02

    ------------------------------------------------
       NWT REQUIRED            9 OUTER ITERATIONS 
       AND A TOTAL OF         14 INNER ITERATIONS.
    ------------------------------------------------

 NO OUTPUT CONTROL FOR STRESS PERIOD   17   TIME STEP    9
 
 SOLVING FOR HEAD 
                                                   Max.-Head-Change                         Max.-Flux-Residual
  Residual-Control   Outer-Iter.   Inner-Iter.     Column Row Layer    Maximum-Head-Change  Column Row Layer    Maximum-Flux-Residual          L2-NORM 
          0                 1           2             2   13     1      -0.1002331315E-01       2   13    1        -0.5652185831E+00      0.1925051646E+01
          0                 2           2             8    2     1       0.2430931322E-02       3    2    1         0.6909185246E-01      0.4020219110E+00
          0                 3           2             8    2     1       0.1092578371E-02       8    2    1         0.2837471947E-01      0.1378168275E+00
          0                 4           2             8    2     1       0.4910572299E-03       8    2    1         0.1275297259E-01      0.5867072355E-01
          0                 5           2             8    2     1       0.2207045145E-03       8    2    1         0.5731797910E-02      0.2605261035E-01
          0                 6           1             8    2     1       0.9919503072E-04       8    2    1         0.2576142642E-02      0.1164535042E-01
          0                 7           1             8    2     1       0.4458288849E-04       8    2    1         0.1157839955E-02      0.5211010990E-02
          0                 8           1             8    2     1       0.2003761697E-04       8    2    1         0.5203873654E-03      0.2332352246E-02
          0                 9           1             8    2     1       0.9005825121E-05       8    2    1         0.2338861681E-03      0.1044028007E-02

    ------------------------------------------------
       NWT REQUIRED            9 OUTER ITERATIONS 
       AND A TOTAL OF         14 INNER ITERATIONS.
    ------------------------------------------------

 NO OUTPUT CONTROL FOR STRESS PERIOD   17   TIME STEP   10
 
 SOLVING FOR HEAD 
                                                   Max.-Head-Change                         Max.-Flux-Residual
  Residual-Control   Outer-Iter.   Inner-Iter.     Column Row Layer    Maximum-Head-Change  Column Row Layer    Maximum-Flux-Residual          L2-NORM 
          0                 1           2             2   13     1      -0.9264782117E-02       2   13    1        -0.5223860541E+00      0.1884538653E+01
          0                 2           2             8    2     1       0.2429782265E-02       1    1    1         0.6870952561E-01      0.3999031181E+00
          0                 3           2             8    2     1       0.1092061507E-02       8    2    1         0.2836130525E-01      0.1376291344E+00
          0                 4           2             8    2     1       0.4908247370E-03       8    2    1         0.1274693866E-01      0.5860495814E-01
          0                 5           2             8    2     1       0.2205999369E-03       8    2    1         0.5729083772E-02      0.2602377963E-01
          0                 6           1             8    2     1       0.9914799059E-04       8    2    1         0.2574921789E-02      0.1163260270E-01
          0                 7           1             8    2     1       0.4456172934E-04       8    2    1         0.1157290806E-02      0.5205369252E-02
          0                 8           1             8    2     1       0.2002809975E-04       8    2    1         0.5201403580E-03      0.2329853913E-02
          0                 9           1             8    2     1       0.9001544471E-05       8    2    1         0.2337750620E-03      0.1042921034E-02

    ------------------------------------------------
       NWT REQUIRED            9 OUTER ITERATIONS 
       AND A TOTAL OF         14 INNER ITERATIONS.
    ------------------------------------------------

 NO OUTPUT CONTROL FOR STRESS PERIOD   17   TIME STEP   11
 
 SOLVING FOR HEAD 
                                                   Max.-Head-Change                         Max.-Flux-Residual
  Residual-Control   Outer-Iter.   Inner-Iter.     Column Row Layer    Maximum-Head-Change  Column Row Layer    Maximum-Flux-Residual          L2-NORM 
          0                 1           2             2   13     1      -0.8564399909E-02       2   13    1        -0.4828407846E+00      0.1849781262E+01
          0                 2           2             8    2     1       0.2428680281E-02       1    1    1         0.6869580548E-01      0.3981134749E+00
          0                 3           2             8    2     1       0.1091565804E-02       8    2    1         0.2834844050E-01      0.1374579065E+00
          0                 4           2             8    2     1       0.4906017580E-03       8    2    1         0.1274115176E-01      0.5854214162E-01
          0                 5           2             8    2     1       0.2204996356E-03       8    2    1         0.5726480678E-02      0.2599606891E-01
          0                 6           1             8    2     1       0.9910287331E-04       8    2    1         0.2573750863E-02      0.1162032900E-01
          0                 7           1             8    2     1       0.4454143483E-04       8    2    1         0.1156764099E-02      0.5199931500E-02
          0                 8           1             8    2     1       0.2001897069E-04       8    2    1         0.5199034337E-03      0.2327443461E-02
          0                 9           1             8    2     1       0.8997438148E-05       8    2    1         0.2336684918E-03      0.1041852013E-02

    ------------------------------------------------
       NWT REQUIRED            9 OUTER ITERATIONS 
       AND A TOTAL OF         14 INNER ITERATIONS.
    ------------------------------------------------

 NO OUTPUT CONTROL FOR STRESS PERIOD   17   TIME STEP   12
 
 SOLVING FOR HEAD 
                                                   Max.-Head-Change                         Max.-Flux-Residual
  Residual-Control   Outer-Iter.   Inner-Iter.     Column Row Layer    Maximum-Head-Change  Column Row Layer    Maximum-Flux-Residual          L2-NORM 
          0                 1           2             2   13     1      -0.7917624965E-02       2   13    1        -0.4463256960E+00      0.1819808146E+01
          0                 2           2             8    2     1       0.2427533600E-02       1    1    1         0.6868209097E-01      0.3965656966E+00
          0                 3           2             8    2     1       0.1091050016E-02       8    2    1         0.2833505406E-01      0.1372973263E+00
          0                 4           2             8    2     1       0.4903697530E-03       8    2    1         0.1273513042E-01      0.5848168359E-01
          0                 5           2             8    2     1       0.2203952790E-03       8    2    1         0.5723772242E-02      0.2596932568E-01
          0                 6           1             8    2     1       0.9905593322E-04       8    2    1         0.2572532594E-02      0.1160846626E-01
          0                 7           1             8    2     1       0.4452032121E-04       8    2    1         0.1156216121E-02      0.5194669447E-02
          0                 8           1             8    2     1       0.2000947423E-04       8    2    1         0.5196569548E-03      0.2325108959E-02
          0                 9           1             8    2     1       0.8993166501E-05       8    2    1         0.2335576218E-03      0.1040822987E-02

    ------------------------------------------------
       NWT REQUIRED            9 OUTER ITERATIONS 
       AND A TOTAL OF         14 INNER ITERATIONS.
    ------------------------------------------------

 NO OUTPUT CONTROL FOR STRESS PERIOD   17   TIME STEP   13
 
 SOLVING FOR HEAD 
                                                   Max.-Head-Change                         Max.-Flux-Residual
  Residual-Control   Outer-Iter.   Inner-Iter.     Column Row Layer    Maximum-Head-Change  Column Row Layer    Maximum-Flux-Residual          L2-NORM 
          0                 1           2             7    6     1      -0.2446934655E+00       7    6    1        -0.1335697139E+02      0.1347490034E+02
          0                 2           2             7    6     1       0.2680442149E+00       7    6    1         0.1477689957E+02      0.1478189454E+02
          0                 3           2             7    6     1      -0.1477884227E-01       7    6    1        -0.8227878178E+00      0.8379036998E+00
          0                 4           2             7    6     1      -0.2606059601E-02       7    6    1        -0.1449524745E+00      0.1565180252E+00
          0                 5           2             7    6     1      -0.4601506734E-03       7    6    1        -0.2557245956E-01      0.3643860898E-01
          0                 6           1             8    2     1       0.9900907116E-04       7    6    1        -0.4517173087E-02      0.1244857649E-01
          0                 7           1             8    2     1       0.4449924485E-04       8    2    1         0.1155669059E-02      0.5252038872E-02
          0                 8           1             8    2     1       0.1999999477E-04       8    2    1         0.5194109081E-03      0.2328110497E-02
          0                 9           1             8    2     1       0.8988903108E-05       8    2    1         0.2334469643E-03      0.1040317656E-02

    ------------------------------------------------
       NWT REQUIRED            9 OUTER ITERATIONS 
       AND A TOTAL OF         14 INNER ITERATIONS.
    ------------------------------------------------

 NO OUTPUT CONTROL FOR STRESS PERIOD   17   TIME STEP   14
 
 SOLVING FOR HEAD 
                                                   Max.-Head-Change                         Max.-Flux-Residual
  Residual-Control   Outer-Iter.   Inner-Iter.     Column Row Layer    Maximum-Head-Change  Column Row Layer    Maximum-Flux-Residual          L2-NORM 
          0                 1           2             7    6     1      -0.2887779923E+00       7    6    1        -0.1576135608E+02      0.1585887756E+02
          0                 2           2             7    6     1       0.3160890614E+00       7    6    1         0.1742596706E+02      0.1743018668E+02
          0                 3           2             7    6     1      -0.1804063059E-01       7    6    1        -0.1004286430E+01      0.1017817273E+01
          0                 4           2             7    6     1      -0.3181713894E-02       7    6    1        -0.1769543350E+00      0.1865809879E+00
          0                 5           2             7    6     1      -0.5618779106E-03       7    6    1        -0.3122286767E-01      0.4058516299E-01
          0                 6           1             7    6     1      -0.9934228501E-04       7    6    1        -0.5516103635E-02      0.1283297766E-01
          0                 7           1             8    2     1       0.4447818225E-04       8    2    1         0.1155122400E-02      0.5276030339E-02
          0                 8           1             8    2     1       0.1999052131E-04       8    2    1         0.5191650293E-03      0.2327182330E-02
          0                 9           1             8    2     1       0.8984641966E-05       8    2    1         0.2333363676E-03      0.1039338475E-02

    ------------------------------------------------
       NWT REQUIRED            9 OUTER ITERATIONS 
       AND A TOTAL OF         14 INNER ITERATIONS.
    ------------------------------------------------

 NO OUTPUT CONTROL FOR STRESS PERIOD   17   TIME STEP   15
 
 SOLVING FOR HEAD 
                                                   Max.-Head-Change                         Max.-Flux-Residual
  Residual-Control   Outer-Iter.   Inner-Iter.     Column Row Layer    Maximum-Head-Change  Column Row Layer    Maximum-Flux-Residual          L2-NORM 
          0                 1           2             7    6     1      -0.2888786405E+00       7    6    1        -0.1576685644E+02      0.1586218283E+02
          0                 2           2             7    6     1       0.3161980521E+00       7    6    1         0.1743198930E+02      0.1743618307E+02
          0                 3           2             7    6     1      -0.1804808965E-01       7    6    1        -0.1004702201E+01      0.1018209601E+01
          0                 4           2             7    6     1      -0.3183027065E-02       7    6    1        -0.1770274603E+00      0.1866308998E+00
          0                 5           2             7    6     1      -0.5621094146E-03       7    6    1        -0.3123574767E-01      0.4057737446E-01
          0                 6           1             7    6     1      -0.9938315060E-04       7    6    1        -0.5518375293E-02      0.1282284539E-01
          0                 7           1             8    2     1       0.4445797253E-04       8    2    1         0.1154597919E-02      0.5270919849E-02
          0                 8           1             8    2     1       0.1998142978E-04       8    2    1         0.5189290907E-03      0.2324738884E-02
          0                 9           1             8    2     1       0.8980552401E-05       8    2    1         0.2332302339E-03      0.1038234354E-02

    ------------------------------------------------
       NWT REQUIRED            9 OUTER ITERATIONS 
       AND A TOTAL OF         14 INNER ITERATIONS.
    ------------------------------------------------

 NO OUTPUT CONTROL FOR STRESS PERIOD   17   TIME STEP   16
 
 SOLVING FOR HEAD 
                                                   Max.-Head-Change                         Max.-Flux-Residual
  Residual-Control   Outer-Iter.   Inner-Iter.     Column Row Layer    Maximum-Head-Change  Column Row Layer    Maximum-Flux-Residual          L2-NORM 
          0                 1           2             7    6     1      -0.2887914409E+00       7    6    1        -0.1576211164E+02      0.1585559872E+02
          0                 2           2             7    6     1       0.3161022137E+00       7    6    1         0.1742671783E+02      0.1743089073E+02
          0                 3           2             7    6     1      -0.1804166913E-01       7    6    1        -0.1004345661E+01      0.1017834854E+01
          0                 4           2             7    6     1      -0.3181890692E-02       7    6    1        -0.1769644107E+00      0.1865525132E+00
          0                 5           2             7    6     1      -0.5619080428E-03       7    6    1        -0.3122458377E-01      0.4055218360E-01
          0                 6           1             7    6     1      -0.9934742650E-04       7    6    1        -0.5516396231E-02      0.1281161290E-01
          0                 7           1             8    2     1       0.4443694669E-04       8    2    1         0.1154052231E-02      0.5265669597E-02
          0                 8           1             8    2     1       0.1997197233E-04       8    2    1         0.5186836399E-03      0.2322509205E-02
          0                 9           1             8    2     1       0.8976298512E-05       8    2    1         0.2331198328E-03      0.1037235965E-02

    ------------------------------------------------
       NWT REQUIRED            9 OUTER ITERATIONS 
       AND A TOTAL OF         14 INNER ITERATIONS.
    ------------------------------------------------

 NO OUTPUT CONTROL FOR STRESS PERIOD   17   TIME STEP   17
 
 SOLVING FOR HEAD 
                                                   Max.-Head-Change                         Max.-Flux-Residual
  Residual-Control   Outer-Iter.   Inner-Iter.     Column Row Layer    Maximum-Head-Change  Column Row Layer    Maximum-Flux-Residual          L2-NORM 
          0                 1           2             7    6     1      -0.2888719279E+00       7    6    1        -0.1576651261E+02      0.1585834212E+02
          0                 2           2             7    6     1       0.3161892715E+00       7    6    1         0.1743153073E+02      0.1744060193E+02
          0                 3           2             7    6     1      -0.8556006784E-01       7    6    1        -0.4754678282E+01      0.4757713034E+01
          0                 4           2             7    6     1       0.6407324464E-01       7    6    1         0.3591809002E+01      0.3592303227E+01
          0                 5           2             7    6     1      -0.3472959482E-03       7    6    1        -0.2010062254E-01      0.3787753391E-01
          0                 6           1             8    2     1       0.9882392021E-04       7    6    1        -0.3729022787E-02      0.1258183545E-01
          0                 7           1             8    2     1       0.4441596513E-04       8    2    1         0.1153507612E-02      0.5249376194E-02
          0                 8           1             8    2     1       0.1996253589E-04       8    2    1         0.5184386988E-03      0.2320843590E-02
          0                 9           1             8    2     1       0.8972054628E-05       8    2    1         0.2330096738E-03      0.1036851417E-02

    ------------------------------------------------
       NWT REQUIRED            9 OUTER ITERATIONS 
       AND A TOTAL OF         14 INNER ITERATIONS.
    ------------------------------------------------

 NO OUTPUT CONTROL FOR STRESS PERIOD   17   TIME STEP   18
 
 SOLVING FOR HEAD 
                                                   Max.-Head-Change                         Max.-Flux-Residual
  Residual-Control   Outer-Iter.   Inner-Iter.     Column Row Layer    Maximum-Head-Change  Column Row Layer    Maximum-Flux-Residual          L2-NORM 
          0                 1           2             7    6     1      -0.6429611239E-01       7    6    1        -0.3518093635E+01      0.3899456507E+01
          0                 2           2             7    6     1       0.7183871913E-01       7    6    1         0.3952589342E+01      0.3971141329E+01
          0                 3           2             7    6     1      -0.1765574660E-02       7    6    1        -0.9888749893E-01      0.1711190231E+00
          0                 4           2             8    2     1       0.4889925225E-03       7    6    1        -0.1725764937E-01      0.6078596101E-01
          0                 5           2             8    2     1       0.2197758120E-03       8    2    1         0.5707694462E-02      0.2599297883E-01
          0                 6           1             8    2     1       0.9877730351E-04       8    2    1         0.2565300950E-02      0.1155013048E-01
          0                 7           1             8    2     1       0.4439499707E-04       8    2    1         0.1152963407E-02      0.5164104598E-02
          0                 8           1             8    2     1       0.1995310520E-04       8    2    1         0.5181939282E-03      0.2311213070E-02
          0                 9           1             8    2     1       0.8967812745E-05       8    2    1         0.2328995763E-03      0.1034619920E-02

    ------------------------------------------------
       NWT REQUIRED            9 OUTER ITERATIONS 
       AND A TOTAL OF         14 INNER ITERATIONS.
    ------------------------------------------------

 NO OUTPUT CONTROL FOR STRESS PERIOD   17   TIME STEP   19
 
 SOLVING FOR HEAD 
                                                   Max.-Head-Change                         Max.-Flux-Residual
  Residual-Control   Outer-Iter.   Inner-Iter.     Column Row Layer    Maximum-Head-Change  Column Row Layer    Maximum-Flux-Residual          L2-NORM 
          0                 1           2             7    6     1      -0.2889010088E+00       7    6    1        -0.1576812098E+02      0.1585655548E+02
          0                 2           2             7    6     1       0.3162195778E+00       7    6    1         0.1743322731E+02      0.1743734063E+02
          0                 3           2             7    6     1      -0.1804982118E-01       7    6    1        -0.1004801460E+01      0.1018234885E+01
          0                 4           2             7    6     1      -0.3183319569E-02       7    6    1        -0.1770442194E+00      0.1865791827E+00
          0                 5           2             7    6     1      -0.5621588666E-03       7    6    1        -0.3123857986E-01      0.4051840245E-01
          0                 6           1             7    6     1      -0.9939151661E-04       7    6    1        -0.5518854185E-02      0.1278463859E-01
          0                 7           1             8    2     1       0.4437405577E-04       8    2    1         0.1152419865E-02      0.5252181185E-02
          0                 8           1             8    2     1       0.1994368602E-04       8    2    1         0.5179494528E-03      0.2316384507E-02
          0                 9           1             8    2     1       0.8963576364E-05       8    2    1         0.2327896198E-03      0.1034501858E-02

    ------------------------------------------------
       NWT REQUIRED            9 OUTER ITERATIONS 
       AND A TOTAL OF         14 INNER ITERATIONS.
    ------------------------------------------------

 NO OUTPUT CONTROL FOR STRESS PERIOD   17   TIME STEP   20
 
 SOLVING FOR HEAD 
                                                   Max.-Head-Change                         Max.-Flux-Residual
  Residual-Control   Outer-Iter.   Inner-Iter.     Column Row Layer    Maximum-Head-Change  Column Row Layer    Maximum-Flux-Residual          L2-NORM 
          0                 1           2             7    6     1      -0.2889014180E+00       7    6    1        -0.1576815441E+02      0.1585570510E+02
          0                 2           2             7    6     1       0.3162192922E+00       7    6    1         0.1743322436E+02      0.1743732568E+02
          0                 3           2             7    6     1      -0.1804987860E-01       7    6    1        -0.1004805384E+01      0.1018223413E+01
          0                 4           2             7    6     1      -0.3183326427E-02       7    6    1        -0.1770447253E+00      0.1865645437E+00
          0                 5           2             7    6     1      -0.5621595184E-03       7    6    1        -0.3123863742E-01      0.4050469966E-01
          0                 6           1             7    6     1      -0.9939153601E-04       7    6    1        -0.5518858903E-02      0.1277598232E-01
          0                 7           1             8    2     1       0.4435313923E-04       8    2    1         0.1151876980E-02      0.5247989046E-02
          0                 8           1             8    2     1       0.1993427884E-04       8    2    1         0.5177052831E-03      0.2314493140E-02
          0                 9           1             8    2     1       0.8959345235E-05       8    2    1         0.2326797962E-03      0.1033658390E-02

    ------------------------------------------------
       NWT REQUIRED            9 OUTER ITERATIONS 
       AND A TOTAL OF         14 INNER ITERATIONS.
    ------------------------------------------------

 NO OUTPUT CONTROL FOR STRESS PERIOD   17   TIME STEP   21
 
 SOLVING FOR HEAD 
                                                   Max.-Head-Change                         Max.-Flux-Residual
  Residual-Control   Outer-Iter.   Inner-Iter.     Column Row Layer    Maximum-Head-Change  Column Row Layer    Maximum-Flux-Residual          L2-NORM 
          0                 1           2             7    6     1      -0.2889016913E+00       7    6    1        -0.1576818044E+02      0.1585495171E+02
          0                 2           2             7    6     1       0.3162189954E+00       7    6    1         0.1743322077E+02      0.1743731094E+02
          0                 3           2             7    6     1      -0.1804990499E-01       7    6    1        -0.1004807584E+01      0.1018210705E+01
          0                 4           2             7    6     1      -0.3183327790E-02       7    6    1        -0.1770449263E+00      0.1865501049E+00
          0                 5           2             7    6     1      -0.5621591965E-03       7    6    1        -0.3123864099E-01      0.4049138534E-01
          0                 6           1             7    6     1      -0.9939138251E-04       7    6    1        -0.5518854039E-02      0.1276757302E-01
          0                 7           1             8    2     1       0.4433224171E-04       8    2    1         0.1151334595E-02      0.5243908954E-02
          0                 8           1             8    2     1       0.1992487917E-04       8    2    1         0.5174613187E-03      0.2312648613E-02
          0                 9           1             8    2     1       0.8955117358E-05       8    2    1         0.2325700658E-03      0.1032835226E-02

    ------------------------------------------------
       NWT REQUIRED            9 OUTER ITERATIONS 
       AND A TOTAL OF         14 INNER ITERATIONS.
    ------------------------------------------------

 NO OUTPUT CONTROL FOR STRESS PERIOD   17   TIME STEP   22
 
 SOLVING FOR HEAD 
                                                   Max.-Head-Change                         Max.-Flux-Residual
  Residual-Control   Outer-Iter.   Inner-Iter.     Column Row Layer    Maximum-Head-Change  Column Row Layer    Maximum-Flux-Residual          L2-NORM 
          0                 1           2             7    6     1      -0.2889020734E+00       7    6    1        -0.1576821249E+02      0.1585431634E+02
          0                 2           2             7    6     1       0.3162187116E+00       7    6    1         0.1743321790E+02      0.1743729831E+02
          0                 3           2             7    6     1      -0.1804995894E-01       7    6    1        -0.1004811320E+01      0.1018200390E+01
          0                 4           2             7    6     1      -0.3183334013E-02       7    6    1        -0.1770453977E+00      0.1865364862E+00
          0                 5           2             7    6     1      -0.5621597323E-03       7    6    1        -0.3123869225E-01      0.4047855207E-01
          0                 6           1             7    6     1      -0.9939138153E-04       7    6    1        -0.5518857633E-02      0.1275942645E-01
          0                 7           1             8    2     1       0.4431137519E-04       8    2    1         0.1150793000E-02      0.5239948896E-02
          0                 8           1             8    2     1       0.1991549425E-04       8    2    1         0.5172177302E-03      0.2310856477E-02
          0                 9           1             8    2     1       0.8950896234E-05       8    2    1         0.2324605082E-03      0.1032035054E-02

    ------------------------------------------------
       NWT REQUIRED            9 OUTER ITERATIONS 
       AND A TOTAL OF         14 INNER ITERATIONS.
    ------------------------------------------------

 NO OUTPUT CONTROL FOR STRESS PERIOD   17   TIME STEP   23
 
 SOLVING FOR HEAD 
                                                   Max.-Head-Change                         Max.-Flux-Residual
  Residual-Control   Outer-Iter.   Inner-Iter.     Column Row Layer    Maximum-Head-Change  Column Row Layer    Maximum-Flux-Residual          L2-NORM 
          0                 1           2             7    6     1      -0.2889023169E+00       7    6    1        -0.1576823710E+02      0.1585373448E+02
          0                 2           2             7    6     1       0.3162184167E+00       7    6    1         0.1743321440E+02      0.1743728485E+02
          0                 3           2             7    6     1      -0.1804998102E-01       7    6    1        -0.1004813290E+01      0.1018187714E+01
          0                 4           2             7    6     1      -0.3183334577E-02       7    6    1        -0.1770455557E+00      0.1865223212E+00
          0                 5           2             7    6     1      -0.5621592620E-03       7    6    1        -0.3123868783E-01      0.4046555549E-01
          0                 6           1             7    6     1      -0.9939120028E-04       7    6    1        -0.5518851296E-02      0.1275122266E-01
          0                 7           1             8    2     1       0.4429053544E-04       8    2    1         0.1150252089E-02      0.5235970165E-02
          0                 8           1             8    2     1       0.1990612109E-04       8    2    1         0.5169744466E-03      0.2309058707E-02
          0                 9           1             8    2     1       0.8946680863E-05       8    2    1         0.2323510924E-03      0.1031233844E-02

    ------------------------------------------------
       NWT REQUIRED            9 OUTER ITERATIONS 
       AND A TOTAL OF         14 INNER ITERATIONS.
    ------------------------------------------------

 NO OUTPUT CONTROL FOR STRESS PERIOD   17   TIME STEP   24
 
 SOLVING FOR HEAD 
                                                   Max.-Head-Change                         Max.-Flux-Residual
  Residual-Control   Outer-Iter.   Inner-Iter.     Column Row Layer    Maximum-Head-Change  Column Row Layer    Maximum-Flux-Residual          L2-NORM 
          0                 1           2             7    6     1      -0.2889026718E+00       7    6    1        -0.1576826757E+02      0.1585320229E+02
          0                 2           2             7    6     1       0.3162181337E+00       7    6    1         0.1743321158E+02      0.1743727149E+02
          0                 3           2             7    6     1      -0.1805003177E-01       7    6    1        -0.1004816846E+01      0.1018174469E+01
          0                 4           2             7    6     1      -0.3183340238E-02       7    6    1        -0.1770459957E+00      0.1865063294E+00
          0                 5           2             7    6     1      -0.5621596992E-03       7    6    1        -0.3123873358E-01      0.4045070541E-01
          0                 6           1             7    6     1      -0.9939118199E-04       7    6    1        -0.5518853915E-02      0.1274182185E-01
          0                 7           1             8    2     1       0.4426971445E-04       8    2    1         0.1149711685E-02      0.5231404173E-02
          0                 8           1             8    2     1       0.1989675593E-04       8    2    1         0.5167313810E-03      0.2306992461E-02
          0                 9           1             8    2     1       0.8942468492E-05       8    2    1         0.2322417673E-03      0.1030308272E-02

    ------------------------------------------------
       NWT REQUIRED            9 OUTER ITERATIONS 
       AND A TOTAL OF         14 INNER ITERATIONS.
    ------------------------------------------------

 NO OUTPUT CONTROL FOR STRESS PERIOD   17   TIME STEP   25
 
 SOLVING FOR HEAD 
                                                   Max.-Head-Change                         Max.-Flux-Residual
  Residual-Control   Outer-Iter.   Inner-Iter.     Column Row Layer    Maximum-Head-Change  Column Row Layer    Maximum-Flux-Residual          L2-NORM 
          0                 1           2             7    6     1      -0.2889028898E+00       7    6    1        -0.1576829081E+02      0.1585276138E+02
          0                 2           2             7    6     1       0.3162178403E+00       7    6    1         0.1743320816E+02      0.1743725972E+02
          0                 3           2             7    6     1      -0.1805005080E-01       7    6    1        -0.1004818649E+01      0.1018161955E+01
          0                 4           2             7    6     1      -0.3183340252E-02       7    6    1        -0.1770461236E+00      0.1864919944E+00
          0                 5           2             7    6     1      -0.5621591306E-03       7    6    1        -0.3123872373E-01      0.4043752586E-01
          0                 6           1             7    6     1      -0.9939098343E-04       7    6    1        -0.5518846612E-02      0.1273350425E-01
          0                 7           1             8    2     1       0.4424892597E-04       8    2    1         0.1149172098E-02      0.5227373279E-02
          0                 8           1             8    2     1       0.1988740628E-04       8    2    1         0.5164886992E-03      0.2305172368E-02
          0                 9           1             8    2     1       0.8938263625E-05       8    2    1         0.2321326187E-03      0.1029496242E-02

    ------------------------------------------------
       NWT REQUIRED            9 OUTER ITERATIONS 
       AND A TOTAL OF         14 INNER ITERATIONS.
    ------------------------------------------------

 NO OUTPUT CONTROL FOR STRESS PERIOD   17   TIME STEP   26
 
 SOLVING FOR HEAD 
                                                   Max.-Head-Change                         Max.-Flux-Residual
  Residual-Control   Outer-Iter.   Inner-Iter.     Column Row Layer    Maximum-Head-Change  Column Row Layer    Maximum-Flux-Residual          L2-NORM 
          0                 1           2             7    6     1      -0.2889032191E+00       7    6    1        -0.1576831996E+02      0.1585239717E+02
          0                 2           2             7    6     1       0.3162175588E+00       7    6    1         0.1743320542E+02      0.1743724978E+02
          0                 3           2             7    6     1      -0.1805009834E-01       7    6    1        -0.1004822032E+01      0.1018152370E+01
          0                 4           2             7    6     1      -0.3183345325E-02       7    6    1        -0.1770465317E+00      0.1864791705E+00
          0                 5           2             7    6     1      -0.5621594605E-03       7    6    1        -0.3123876364E-01      0.4042545975E-01
          0                 6           1             7    6     1      -0.9939094450E-04       7    6    1        -0.5518848142E-02      0.1272583701E-01
          0                 7           1             8    2     1       0.4422814374E-04       8    2    1         0.1148632738E-02      0.5223642671E-02
          0                 8           1             8    2     1       0.1987805863E-04       8    2    1         0.5162460875E-03      0.2303482802E-02
          0                 9           1             8    2     1       0.8934058759E-05       8    2    1         0.2320234848E-03      0.1028740339E-02

    ------------------------------------------------
       NWT REQUIRED            9 OUTER ITERATIONS 
       AND A TOTAL OF         14 INNER ITERATIONS.
    ------------------------------------------------

 NO OUTPUT CONTROL FOR STRESS PERIOD   17   TIME STEP   27
 
 SOLVING FOR HEAD 
                                                   Max.-Head-Change                         Max.-Flux-Residual
  Residual-Control   Outer-Iter.   Inner-Iter.     Column Row Layer    Maximum-Head-Change  Column Row Layer    Maximum-Flux-Residual          L2-NORM 
          0                 1           2             7    6     1      -0.2889034147E+00       7    6    1        -0.1576834187E+02      0.1585204928E+02
          0                 2           2             7    6     1       0.3162172664E+00       7    6    1         0.1743320207E+02      0.1743723863E+02
          0                 3           2             7    6     1      -0.1805011521E-01       7    6    1        -0.1004823713E+01      0.1018139383E+01
          0                 4           2             7    6     1      -0.3183344961E-02       7    6    1        -0.1770466383E+00      0.1864643057E+00
          0                 5           2             7    6     1      -0.5621588259E-03       7    6    1        -0.3123875010E-01      0.4041163684E-01
          0                 6           1             7    6     1      -0.9939073489E-04       7    6    1        -0.5518840194E-02      0.1271699023E-01
          0                 7           1             8    2     1       0.4420740453E-04       8    2    1         0.1148094429E-02      0.5219299541E-02
          0                 8           1             8    2     1       0.1986873124E-04       8    2    1         0.5160039867E-03      0.2301499964E-02
          0                 9           1             8    2     1       0.8929863896E-05       8    2    1         0.2319146028E-03      0.1027847874E-02

    ------------------------------------------------
       NWT REQUIRED            9 OUTER ITERATIONS 
       AND A TOTAL OF         14 INNER ITERATIONS.
    ------------------------------------------------

 NO OUTPUT CONTROL FOR STRESS PERIOD   17   TIME STEP   28
 
 SOLVING FOR HEAD 
                                                   Max.-Head-Change                         Max.-Flux-Residual
  Residual-Control   Outer-Iter.   Inner-Iter.     Column Row Layer    Maximum-Head-Change  Column Row Layer    Maximum-Flux-Residual          L2-NORM 
          0                 1           2             7    6     1      -0.2889037216E+00       7    6    1        -0.1576836992E+02      0.1585171951E+02
          0                 2           2             7    6     1       0.3162169873E+00       7    6    1         0.1743319944E+02      0.1743722666E+02
          0                 3           2             7    6     1      -0.1805016034E-01       7    6    1        -0.1004826967E+01      0.1018123424E+01
          0                 4           2             7    6     1      -0.3183349583E-02       7    6    1        -0.1770470222E+00      0.1864455381E+00
          0                 5           2             7    6     1      -0.5621590714E-03       7    6    1        -0.3123878549E-01      0.4039459923E-01
          0                 6           1             7    6     1      -0.9939068024E-04       7    6    1        -0.5518840909E-02      0.1270641396E-01
          0                 7           1             8    2     1       0.4418585546E-04       8    2    1         0.1147535065E-02      0.5214258346E-02
          0                 8           1             8    2     1       0.1985904044E-04       8    2    1         0.5157524316E-03      0.2299258392E-02
          0                 9           1             8    2     1       0.8925505461E-05       8    2    1         0.2318014710E-03      0.1026861531E-02

    ------------------------------------------------
       NWT REQUIRED            9 OUTER ITERATIONS 
       AND A TOTAL OF         14 INNER ITERATIONS.
    ------------------------------------------------

 NO OUTPUT CONTROL FOR STRESS PERIOD   17   TIME STEP   29
 
 SOLVING FOR HEAD 
                                                   Max.-Head-Change                         Max.-Flux-Residual
  Residual-Control   Outer-Iter.   Inner-Iter.     Column Row Layer    Maximum-Head-Change  Column Row Layer    Maximum-Flux-Residual          L2-NORM 
          0                 1           2             7    6     1      -0.2889040142E+00       7    6    1        -0.1576839713E+02      0.1585146256E+02
          0                 2           2             7    6     1       0.3162167082E+00       7    6    1         0.1743319682E+02      0.1743721783E+02
          0                 3           2             7    6     1      -0.1805020360E-01       7    6    1        -0.1004830116E+01      0.1018114072E+01
          0                 4           2             7    6     1      -0.3183353879E-02       7    6    1        -0.1770473878E+00      0.1864330738E+00
          0                 5           2             7    6     1      -0.5621592608E-03       7    6    1        -0.3123881770E-01      0.4038288734E-01
          0                 6           1             7    6     1      -0.9939061663E-04       7    6    1        -0.5518841058E-02      0.1269896927E-01
          0                 7           1             8    2     1       0.4416517428E-04       8    2    1         0.1146998248E-02      0.5210636289E-02
          0                 8           1             8    2     1       0.1984973881E-04       8    2    1         0.5155109977E-03      0.2297618381E-02
          0                 9           1             8    2     1       0.8921322354E-05       8    2    1         0.2316928917E-03      0.1026128000E-02

    ------------------------------------------------
       NWT REQUIRED            9 OUTER ITERATIONS 
       AND A TOTAL OF         14 INNER ITERATIONS.
    ------------------------------------------------

 NO OUTPUT CONTROL FOR STRESS PERIOD   17   TIME STEP   30



 STREAM LISTING     PERIOD     17   STEP       30

 LAYER ROW COL. STREAM  RCH.  FLOW INTO     FLOW TO   FLOW OUT OF   OVRLND.     DIRECT     STREAM       STREAM     STREAM     STREAM   STREAMBED  STREAMBED
                SEG.NO.  NO.  STRM. RCH.    AQUIFER    STRM. RCH.    RUNOFF     PRECIP       ET          HEAD       DEPTH      WIDTH   CONDCTNC.   GRADIENT

   1    1    1     1     1    3.5000E+01  2.8629E-01   3.4714E+01  0.000E+00  0.000E+00  0.000E+00  1.09434E+03  1.292E+00  1.482E+01  6.670E-02  1.431E+00
   1    2    2     1     2    3.4714E+01  4.4325E-01   3.4270E+01  0.000E+00  0.000E+00  0.000E+00  1.08935E+03  1.289E+00  1.476E+01  1.033E-01  1.430E+00
   1    3    3     1     3    3.4270E+01  3.7790E-01   3.3893E+01  0.000E+00  0.000E+00  0.000E+00  1.08370E+03  1.286E+00  1.470E+01  8.817E-02  1.429E+00
   1    3    4     1     4    3.3893E+01  3.4789E-01   3.3545E+01  0.000E+00  0.000E+00  0.000E+00  1.07869E+03  1.283E+00  1.464E+01  8.123E-02  1.428E+00
   1    4    5     2     1    3.1545E+01  0.0000E+00   3.1545E+01  0.000E+00  0.000E+00  0.000E+00  1.07332E+03  1.388E+00  1.200E+01  0.000E+00  1.463E+00
   1    5    6     2     2    3.1545E+01  0.0000E+00   3.1545E+01  0.000E+00  0.000E+00  0.000E+00  1.06790E+03  1.388E+00  1.200E+01  0.000E+00  1.463E+00
   1    6    6     2     3    3.1545E+01  0.0000E+00   3.1545E+01  0.000E+00  0.000E+00  0.000E+00  1.06318E+03  1.388E+00  1.200E+01  0.000E+00  1.463E+00
   1    7    6     2     4    3.1545E+01  0.0000E+00   3.1545E+01  0.000E+00  0.000E+00  0.000E+00  1.05846E+03  1.388E+00  1.200E+01  0.000E+00  1.463E+00
   1    8    6     2     5    3.1545E+01  0.0000E+00   3.1545E+01  0.000E+00  0.000E+00  0.000E+00  1.05375E+03  1.388E+00  1.200E+01  0.000E+00  1.463E+00
   1    3    5     3     1    2.0000E+00  2.8252E-01   1.7175E+00  0.000E+00  0.000E+00  0.000E+00  1.07555E+03  1.909E+00  9.636E+00  7.227E-02  1.955E+00
   1    3    6     3     2    1.7175E+00  2.4905E-01   1.4684E+00  0.000E+00  0.000E+00  0.000E+00  1.07264E+03  1.727E+00  8.909E+00  6.682E-02  1.864E+00
   1    3    7     3     3    1.4684E+00  1.9718E-01   1.2712E+00  0.000E+00  0.000E+00  0.000E+00  1.06987E+03  1.555E+00  8.218E+00  5.547E-02  1.777E+00
   1    4    8     3     4    1.2712E+00  2.2567E-01   1.0456E+00  0.000E+00  0.000E+00  0.000E+00  1.06682E+03  1.364E+00  7.455E+00  6.709E-02  1.682E+00
   1    5    8     3     5    1.0456E+00  1.5790E-01   8.8768E-01  0.000E+00  0.000E+00  0.000E+00  1.06362E+03  1.164E+00  6.655E+00  4.991E-02  1.582E+00
   1    6    8     3     6    8.8768E-01  5.5980E-02   8.3170E-01  0.000E+00  0.000E+00  0.000E+00  1.06158E+03  1.036E+00  6.145E+00  1.844E-02  1.518E+00
   1    5   10     4     1    1.0000E+01  0.0000E+00   1.0000E+01  0.000E+00  0.000E+00  0.000E+00  1.07837E+03  6.385E-01  1.000E+01  0.000E+00  1.213E+00
   1    5    9     4     2    1.0000E+01  0.0000E+00   1.0000E+01  0.000E+00  0.000E+00  0.000E+00  1.07155E+03  6.385E-01  1.000E+01  0.000E+00  1.213E+00
   1    6    8     4     3    1.0000E+01  0.0000E+00   1.0000E+01  0.000E+00  0.000E+00  0.000E+00  1.06382E+03  6.385E-01  1.000E+01  0.000E+00  1.213E+00
   1    6    8     5     1    1.0832E+01  2.3262E-01   1.0599E+01  0.000E+00  0.000E+00  0.000E+00  1.05869E+03  6.881E-01  1.577E+01  6.307E-02  1.229E+00
   1    7    7     5     2    1.0599E+01  2.8607E-01   1.0313E+01  0.000E+00  0.000E+00  0.000E+00  1.05418E+03  6.822E-01  1.554E+01  7.769E-02  1.227E+00
   1    8    7     5     3    1.0313E+01  1.9716E-01   1.0116E+01  0.000E+00  0.000E+00  0.000E+00  1.04993E+03  6.766E-01  1.532E+01  5.363E-02  1.226E+00
   1    8    6     5     4    1.0116E+01  1.3929E-01   9.9766E+00  0.000E+00  0.000E+00  0.000E+00  1.04692E+03  6.727E-01  1.517E+01  3.792E-02  1.224E+00
   1    9    6     6     1    4.1521E+01  0.0000E+00   4.1521E+01  0.000E+00  0.000E+00  0.000E+00  1.04438E+03  1.656E+00  1.200E+01  0.000E+00  1.552E+00
   1   10    7     6     2    4.1521E+01  0.0000E+00   4.1521E+01  0.000E+00  0.000E+00  0.000E+00  1.03984E+03  1.656E+00  1.200E+01  0.000E+00  1.552E+00
   1   11    7     6     3    4.1521E+01  0.0000E+00   4.1521E+01  0.000E+00  0.000E+00  0.000E+00  1.03529E+03  1.656E+00  1.200E+01  0.000E+00  1.552E+00
   1   12    7     6     4    4.1521E+01  0.0000E+00   4.1521E+01  0.000E+00  0.000E+00  0.000E+00  1.03075E+03  1.656E+00  1.200E+01  0.000E+00  1.552E+00
   1   13    7     6     5    4.1521E+01  0.0000E+00   4.1521E+01  0.000E+00  0.000E+00  0.000E+00  1.02756E+03  1.656E+00  1.200E+01  0.000E+00  2.920E-01
   1   14    9     7     1    1.5000E+02  1.2709E+00   1.4873E+02  0.000E+00  0.000E+00  0.000E+00  1.03987E+03  2.288E+00  5.530E+01  5.593E-01  7.574E-01
   1   13    8     7     2    1.4873E+02  1.8936E+00   1.4684E+02  0.000E+00  0.000E+00  0.000E+00  1.03478E+03  2.279E+00  5.526E+01  6.148E-01  1.027E+00
   1   13    7     7     3    1.4684E+02  1.6757E+00   1.4516E+02  0.000E+00  0.000E+00  0.000E+00  1.02969E+03  2.270E+00  5.521E+01  5.584E-01  1.000E+00
   1   13    6     8     1    1.8668E+02  1.1533E+00   1.8553E+02  0.000E+00  0.000E+00  0.000E+00  1.02493E+03  3.054E+00  4.428E+01  4.513E-01  8.519E-01
   1   13    5     8     2    1.8553E+02  3.3148E-01   1.8520E+02  0.000E+00  0.000E+00  0.000E+00  1.01867E+03  3.050E+00  4.422E+01  4.506E-01  2.452E-01
   1   13    4     8     3    1.8520E+02 -2.1019E+00   1.8730E+02  0.000E+00  0.000E+00  0.000E+00  1.01243E+03  3.055E+00  4.430E+01  4.514E+00 -1.552E-01
   1   13    3     8     4    1.8730E+02 -3.6403E+00   1.9094E+02  0.000E+00  0.000E+00  0.000E+00  1.00620E+03  3.073E+00  4.455E+01  4.540E+00 -2.673E-01
   1   13    2     8     5    1.9094E+02 -2.6557E+00   1.9359E+02  0.000E+00  0.000E+00  0.000E+00  9.99967E+02  3.092E+00  4.483E+01  4.568E+00 -1.938E-01
   1   13    1     8     6    1.9359E+02 -2.0670E+00   1.9566E+02  0.000E+00  0.000E+00  0.000E+00  9.94981E+02  3.106E+00  4.503E+01  2.754E+00 -2.502E-01
   1    6    8     9     1    0.0000E+00  0.0000E+00   0.0000E+00  0.000E+00  0.000E+00  0.000E+00  1.07850E+03  0.000E+00  4.000E+00  0.000E+00  1.000E+00





UNSATURATED ZONE PACKAGE VOLUMETRIC BUDGET FOR  TIME STEP    30 STRESS PERIOD   17
  ------------------------------------------------------------------------------



     CUMULATIVE VOLUMES      L**3       RATES FOR THIS TIME STEP      L**3/T
     ------------------                 ------------------------

           IN:                                      IN:
           ---                                      ---
        INFILTRATION =    56970776.0977          INFILTRATION =           0.8475

          OUT:                                     OUT:
          ----                                     ----
              UZF ET =   584266998.2964                UZF ET =           1.0925
        UZF RECHARGE =  1047654799.5308          UZF RECHARGE =          22.0460

            IN - OUT = -1574951021.7295              IN - OUT =         -22.2910

          STORAGE:                                 STORAGE:
          --------                                 --------
      STORAGE CHANGE = -1574941947.9296        STORAGE CHANGE =         -22.2910

 PERCENT DISCREPANCY IS DIFFERENCE BETWEEN IN-OUT MINUS CHANGE IN STORAGE
 DIVIDED BY THE AVERAGE OF IN AND OUT TIMES 100

 PERCENT DISCREPANCY =          -0.00     PERCENT DISCREPANCY =           0.00






1
  VOLUMETRIC BUDGET FOR ENTIRE MODEL AT END OF TIME STEP   30, STRESS PERIOD  17
  ------------------------------------------------------------------------------

     CUMULATIVE VOLUMES      L**3       RATES FOR THIS TIME STEP      L**3/T
     ------------------                 ------------------------

           IN:                                      IN:
           ---                                      ---
             STORAGE =    33265234.0000               STORAGE =           0.5187
       CONSTANT HEAD =           0.0000         CONSTANT HEAD =           0.0000
               WELLS =           0.0000                 WELLS =           0.0000
     HEAD DEP BOUNDS =    12674634.0000       HEAD DEP BOUNDS =           0.2813
      STREAM LEAKAGE =   449713664.0000        STREAM LEAKAGE =           9.8037
        UZF RECHARGE =  1047654208.0000          UZF RECHARGE =          22.0460
               GW ET =           0.0000                 GW ET =           0.0000
     SURFACE LEAKAGE =           0.0000       SURFACE LEAKAGE =           0.0000

            TOTAL IN =  1543307776.0000              TOTAL IN =          32.6497

          OUT:                                     OUT:
          ----                                     ----
             STORAGE =  1074352768.0000               STORAGE =          21.1247
       CONSTANT HEAD =           0.0000         CONSTANT HEAD =           0.0000
               WELLS =     1016027.8750                 WELLS =           0.0000
     HEAD DEP BOUNDS =    12865840.0000       HEAD DEP BOUNDS =           0.2938
      STREAM LEAKAGE =   381735520.0000        STREAM LEAKAGE =          10.4648
        UZF RECHARGE =           0.0000          UZF RECHARGE =           0.0000
               GW ET =    73226376.0000                 GW ET =           0.7633
     SURFACE LEAKAGE =           0.0000       SURFACE LEAKAGE =           0.0000

           TOTAL OUT =  1543196544.0000             TOTAL OUT =          32.6466

            IN - OUT =      111232.0000              IN - OUT =       3.1052E-03

 PERCENT DISCREPANCY =           0.01     PERCENT DISCREPANCY =           0.01






         TIME SUMMARY AT END OF TIME STEP   30 IN STRESS PERIOD   17
                    SECONDS     MINUTES      HOURS       DAYS        YEARS
                    -----------------------------------------------------------
   TIME STEP LENGTH  87600.      1460.0      24.333      1.0139     2.77588E-03
 STRESS PERIOD TIME 2.62800E+06  43800.      730.00      30.417     8.32763E-02
         TOTAL TIME 4.46760E+07 7.44600E+05  12410.      517.08      1.4157    
1
1
                            STRESS PERIOD NO.   18, LENGTH =   2628000.    
                            -----------------------------------------------

                              NUMBER OF TIME STEPS =    30

                               MULTIPLIER FOR DELT =     1.000

                            INITIAL TIME STEP SIZE =   87600.00    

 WELL NO.  LAYER   ROW   COL   STRESS RATE         
 --------------------------------------------------
      1      1      6      4       0.000    
      2      1      6      7       0.000    
      3      1      7      4       0.000    
      4      1      7      5       0.000    
      5      1      8      4       0.000    
      6      1      8      5       0.000    
      7      1      9      4       0.000    
      8      1      9      5       0.000    
      9      1     10      4       0.000    
     10      1     10      5       0.000    

     10 WELLS

 REUSING NON-PARAMETER GHB CELLS FROM LAST STRESS PERIOD

      2 GHB CELLS

 REUSING STREAM SEGMENT DATA FROM LAST STRESS PERIOD



            AREAL INFILTRATION RATE
 READING ON UNIT   19 WITH FORMAT: (10F4.0)            

            1           2           3           4           5           6           7           8           9          10
 ........................................................................................................................
   1   1.0000E-10  2.0000E-10   0.000       0.000       0.000       0.000       0.000       0.000       0.000       0.000    
   2   2.0000E-10  1.0000E-10  2.0000E-10   0.000       0.000      8.0000E-10  8.0000E-10  5.0000E-10   0.000       0.000    
   3    0.000      5.0000E-10  1.0000E-10  1.0000E-10  8.0000E-10  8.0000E-10  5.0000E-10  5.0000E-10   0.000       0.000    
   4   8.0000E-10  5.0000E-10  1.0000E-10  1.0000E-10  1.0000E-10  1.0000E-10  1.0000E-10  1.0000E-10  2.0000E-10   0.000    
   5   8.0000E-10  5.0000E-10  1.0000E-10  1.0000E-10  1.0000E-10  1.0000E-10  1.0000E-10  1.0000E-10  1.0000E-10  1.0000E-10
   6   8.0000E-10  5.0000E-10  5.0000E-10  2.0000E-10  2.0000E-10  1.0000E-10  1.0000E-10  1.0000E-10  1.0000E-10  5.0000E-10
   7   8.0000E-10  5.0000E-10  5.0000E-10  2.0000E-10  2.0000E-10  1.0000E-10  1.0000E-10  2.0000E-10  2.0000E-10   0.000    
   8    0.000      5.0000E-10  5.0000E-10  2.0000E-10  2.0000E-10  1.0000E-10  1.0000E-10  2.0000E-10  5.0000E-10   0.000    
   9    0.000      5.0000E-10  5.0000E-10  2.0000E-10  2.0000E-10  1.0000E-10  1.0000E-10  2.0000E-10  5.0000E-10   0.000    
  10    0.000      5.0000E-10  5.0000E-10  2.0000E-10  2.0000E-10  1.0000E-10  1.0000E-10  2.0000E-10  5.0000E-10  8.0000E-10
  11    0.000      1.0000E-10  1.0000E-10  1.0000E-10  1.0000E-10  1.0000E-10  1.0000E-10  2.0000E-10  5.0000E-10   0.000    
  12   1.0000E-10  1.0000E-10  1.0000E-10  1.0000E-10  1.0000E-10  1.0000E-10  1.0000E-10  1.0000E-10  2.0000E-10   0.000    
  13   1.0000E-10  1.0000E-10  2.0000E-10  2.0000E-10  2.0000E-10  2.0000E-10  2.0000E-10  1.0000E-10  1.0000E-10   0.000    
  14    0.000      2.0000E-10  5.0000E-10  5.0000E-10  5.0000E-10  5.0000E-10  5.0000E-10  2.0000E-10  1.0000E-10   0.000    
  15    0.000       0.000      8.0000E-10  8.0000E-10  8.0000E-10  8.0000E-10   0.000       0.000       0.000       0.000    

                  ET RATE =  1.000000E-08

 USING ET EXTINCTION DEPTH FROM PREVIOUS STRESS PERIOD. CURRENT PERIOD IS:      18

 USING EXTINCTION WATER CONTENT FROM PREVIOUS STRESS PERIOD. CURRENT PERIOD IS:      18
 
 SOLVING FOR HEAD 
                                                   Max.-Head-Change                         Max.-Flux-Residual
  Residual-Control   Outer-Iter.   Inner-Iter.     Column Row Layer    Maximum-Head-Change  Column Row Layer    Maximum-Flux-Residual          L2-NORM 
          0                 1           2             7    6     1      -0.2889041736E+00       7    6    1        -0.1576841714E+02      0.1586358107E+02
          0                 2           2             7    6     1       0.3162164182E+00       7    6    1         0.1743319359E+02      0.1743747324E+02
          0                 3           2             7    6     1      -0.1805021617E-01       7    6    1        -0.1004831564E+01      0.1018234693E+01
          0                 4           2             7    6     1      -0.3183352734E-02       7    6    1        -0.1770474518E+00      0.1864507356E+00
          0                 5           2             7    6     1      -0.5621584847E-03       7    6    1        -0.3123879642E-01      0.4038373445E-01
          0                 6           1             7    6     1      -0.9939038160E-04       7    6    1        -0.5518831719E-02      0.1269792933E-01
          0                 7           1             8    2     1       0.4414450010E-04       8    2    1         0.1146461686E-02      0.5209960421E-02
          0                 8           1             8    2     1       0.1984044018E-04       8    2    1         0.5152696554E-03      0.2297277324E-02
          0                 9           1             8    2     1       0.8917139747E-05       8    2    1         0.2315843317E-03      0.1025963104E-02

    ------------------------------------------------
       NWT REQUIRED            9 OUTER ITERATIONS 
       AND A TOTAL OF         14 INNER ITERATIONS.
    ------------------------------------------------

 NO OUTPUT CONTROL FOR STRESS PERIOD   18   TIME STEP    1
 
 SOLVING FOR HEAD 
                                                   Max.-Head-Change                         Max.-Flux-Residual
  Residual-Control   Outer-Iter.   Inner-Iter.     Column Row Layer    Maximum-Head-Change  Column Row Layer    Maximum-Flux-Residual          L2-NORM 
          0                 1           2             7    6     1      -0.2889044458E+00       7    6    1        -0.1576844331E+02      0.1587521313E+02
          0                 2           2             7    6     1       0.3162161409E+00       7    6    1         0.1743319106E+02      0.1743763868E+02
          0                 3           2             7    6     1      -0.1805025721E-01       7    6    1        -0.1004834593E+01      0.1018297340E+01
          0                 4           2             7    6     1      -0.3183356620E-02       7    6    1        -0.1770477952E+00      0.1864590653E+00
          0                 5           2             7    6     1      -0.5621585982E-03       7    6    1        -0.3123882452E-01      0.4038400015E-01
          0                 6           1             7    6     1      -0.9939030338E-04       7    6    1        -0.5518831111E-02      0.1269728738E-01
          0                 7           1             8    2     1       0.4412303282E-04       8    2    1         0.1145904430E-02      0.5209526182E-02
          0                 8           1             8    2     1       0.1983078615E-04       8    2    1         0.5150190519E-03      0.2297044743E-02
          0                 9           1             8    2     1       0.8912798069E-05       8    2    1         0.2314716347E-03      0.1025845143E-02

    ------------------------------------------------
       NWT REQUIRED            9 OUTER ITERATIONS 
       AND A TOTAL OF         14 INNER ITERATIONS.
    ------------------------------------------------

 NO OUTPUT CONTROL FOR STRESS PERIOD   18   TIME STEP    2
 
 SOLVING FOR HEAD 
                                                   Max.-Head-Change                         Max.-Flux-Residual
  Residual-Control   Outer-Iter.   Inner-Iter.     Column Row Layer    Maximum-Head-Change  Column Row Layer    Maximum-Flux-Residual          L2-NORM 
          0                 1           2             7    6     1      -0.2889045865E+00       7    6    1        -0.1576846225E+02      0.1587280237E+02
          0                 2           2             7    6     1       0.3162158522E+00       7    6    1         0.1743318791E+02      0.1743761167E+02
          0                 3           2             7    6     1      -0.1805026810E-01       7    6    1        -0.1004835947E+01      0.1018290605E+01
          0                 4           2             7    6     1      -0.3183355175E-02       7    6    1        -0.1770478426E+00      0.1864543469E+00
          0                 5           2             7    6     1      -0.5621577688E-03       7    6    1        -0.3123880028E-01      0.4037976032E-01
          0                 6           1             7    6     1      -0.9939005852E-04       7    6    1        -0.5518821238E-02      0.1269455921E-01
          0                 7           1             8    2     1       0.4410242092E-04       8    2    1         0.1145369442E-02      0.5208172976E-02
          0                 8           1             8    2     1       0.1982151528E-04       8    2    1         0.5147784302E-03      0.2296417999E-02
          0                 9           1             8    2     1       0.8908628718E-05       8    2    1         0.2313634143E-03      0.1025558204E-02

    ------------------------------------------------
       NWT REQUIRED            9 OUTER ITERATIONS 
       AND A TOTAL OF         14 INNER ITERATIONS.
    ------------------------------------------------

 NO OUTPUT CONTROL FOR STRESS PERIOD   18   TIME STEP    3
 
 SOLVING FOR HEAD 
                                                   Max.-Head-Change                         Max.-Flux-Residual
  Residual-Control   Outer-Iter.   Inner-Iter.     Column Row Layer    Maximum-Head-Change  Column Row Layer    Maximum-Flux-Residual          L2-NORM 
          0                 1           2             7    6     1      -0.2889048412E+00       7    6    1        -0.1576848748E+02      0.1587082430E+02
          0                 2           2             7    6     1       0.3162155768E+00       7    6    1         0.1743318548E+02      0.1743758978E+02
          0                 3           2             7    6     1      -0.1805030779E-01       7    6    1        -0.1004838904E+01      0.1018287852E+01
          0                 4           2             7    6     1      -0.3183358813E-02       7    6    1        -0.1770481726E+00      0.1864518098E+00
          0                 5           2             7    6     1      -0.5621578374E-03       7    6    1        -0.3123882593E-01      0.4037721689E-01
          0                 6           1             7    6     1      -0.9938997269E-04       7    6    1        -0.5518820190E-02      0.1269284148E-01
          0                 7           1             8    2     1       0.4408100966E-04       8    2    1         0.1144813643E-02      0.5207286124E-02
          0                 8           1             8    2     1       0.1981188650E-04       8    2    1         0.5145284854E-03      0.2295994891E-02
          0                 9           1             8    2     1       0.8904298796E-05       8    2    1         0.2312510166E-03      0.1025359809E-02

    ------------------------------------------------
       NWT REQUIRED            9 OUTER ITERATIONS 
       AND A TOTAL OF         14 INNER ITERATIONS.
    ------------------------------------------------

 NO OUTPUT CONTROL FOR STRESS PERIOD   18   TIME STEP    4
 
 SOLVING FOR HEAD 
                                                   Max.-Head-Change                         Max.-Flux-Residual
  Residual-Control   Outer-Iter.   Inner-Iter.     Column Row Layer    Maximum-Head-Change  Column Row Layer    Maximum-Flux-Residual          L2-NORM 
          0                 1           2             7    6     1      -0.2889050859E+00       7    6    1        -0.1576851201E+02      0.1586918954E+02
          0                 2           2             7    6     1       0.3162153013E+00       7    6    1         0.1743318308E+02      0.1743757109E+02
          0                 3           2             7    6     1      -0.1805034658E-01       7    6    1        -0.1004841808E+01      0.1018285763E+01
          0                 4           2             7    6     1      -0.3183362308E-02       7    6    1        -0.1770484941E+00      0.1864495160E+00
          0                 5           2             7    6     1      -0.5621578833E-03       7    6    1        -0.3123885025E-01      0.4037483649E-01
          0                 6           1             7    6     1      -0.9938988341E-04       7    6    1        -0.5518818943E-02      0.1269120209E-01
          0                 7           1             8    2     1       0.4406044804E-04       8    2    1         0.1144279977E-02      0.5206429374E-02
          0                 8           1             8    2     1       0.1980263815E-04       8    2    1         0.5142884485E-03      0.2295581248E-02
          0                 9           1             8    2     1       0.8900138949E-05       8    2    1         0.2311430493E-03      0.1025164373E-02

    ------------------------------------------------
       NWT REQUIRED            9 OUTER ITERATIONS 
       AND A TOTAL OF         14 INNER ITERATIONS.
    ------------------------------------------------

 NO OUTPUT CONTROL FOR STRESS PERIOD   18   TIME STEP    5
 
 SOLVING FOR HEAD 
                                                   Max.-Head-Change                         Max.-Flux-Residual
  Residual-Control   Outer-Iter.   Inner-Iter.     Column Row Layer    Maximum-Head-Change  Column Row Layer    Maximum-Flux-Residual          L2-NORM 
          0                 1           2             7    6     1      -0.2889051987E+00       7    6    1        -0.1576852958E+02      0.1586782435E+02
          0                 2           2             7    6     1       0.3162150156E+00       7    6    1         0.1743318007E+02      0.1743755402E+02
          0                 3           2             7    6     1      -0.1805035462E-01       7    6    1        -0.1004843011E+01      0.1018281756E+01
          0                 4           2             7    6     1      -0.3183360328E-02       7    6    1        -0.1770485129E+00      0.1864463608E+00
          0                 5           2             7    6     1      -0.5621569538E-03       7    6    1        -0.3123882063E-01      0.4037192231E-01
          0                 6           1             7    6     1      -0.9938962014E-04       7    6    1        -0.5518808073E-02      0.1268927585E-01
          0                 7           1             8    2     1       0.4403909981E-04       8    2    1         0.1143725778E-02      0.5205447527E-02
          0                 8           1             8    2     1       0.1979303839E-04       8    2    1         0.5140392409E-03      0.2295116235E-02
          0                 9           1             8    2     1       0.8895822533E-05       8    2    1         0.2310309913E-03      0.1024946991E-02

    ------------------------------------------------
       NWT REQUIRED            9 OUTER ITERATIONS 
       AND A TOTAL OF         14 INNER ITERATIONS.
    ------------------------------------------------

 NO OUTPUT CONTROL FOR STRESS PERIOD   18   TIME STEP    6
 
 SOLVING FOR HEAD 
                                                   Max.-Head-Change                         Max.-Flux-Residual
  Residual-Control   Outer-Iter.   Inner-Iter.     Column Row Layer    Maximum-Head-Change  Column Row Layer    Maximum-Flux-Residual          L2-NORM 
          0                 1           2             7    6     1      -0.2889054290E+00       7    6    1        -0.1576855334E+02      0.1586666902E+02
          0                 2           2             7    6     1       0.3162147418E+00       7    6    1         0.1743317776E+02      0.1743753909E+02
          0                 3           2             7    6     1      -0.1805039245E-01       7    6    1        -0.1004845863E+01      0.1018279606E+01
          0                 4           2             7    6     1      -0.3183363644E-02       7    6    1        -0.1770488247E+00      0.1864436829E+00
          0                 5           2             7    6     1      -0.5621569668E-03       7    6    1        -0.3123884314E-01      0.4036921301E-01
          0                 6           1             7    6     1      -0.9938952436E-04       7    6    1        -0.5518806477E-02      0.1268743281E-01
          0                 7           1             8    2     1       0.4401859545E-04       8    2    1         0.1143193596E-02      0.5204492828E-02
          0                 8           1             8    2     1       0.1978381604E-04       8    2    1         0.5137998733E-03      0.2294658350E-02
          0                 9           1             8    2     1       0.8891674191E-05       8    2    1         0.2309233245E-03      0.1024731167E-02

    ------------------------------------------------
       NWT REQUIRED            9 OUTER ITERATIONS 
       AND A TOTAL OF         14 INNER ITERATIONS.
    ------------------------------------------------

 NO OUTPUT CONTROL FOR STRESS PERIOD   18   TIME STEP    7
 
 SOLVING FOR HEAD 
                                                   Max.-Head-Change                         Max.-Flux-Residual
  Residual-Control   Outer-Iter.   Inner-Iter.     Column Row Layer    Maximum-Head-Change  Column Row Layer    Maximum-Flux-Residual          L2-NORM 
          0                 1           2             7    6     1      -0.2889055299E+00       7    6    1        -0.1576857017E+02      0.1586569950E+02
          0                 2           2             7    6     1       0.3162144575E+00       7    6    1         0.1743317484E+02      0.1743752483E+02
          0                 3           2             7    6     1      -0.1805040017E-01       7    6    1        -0.1004847047E+01      0.1018275260E+01
          0                 4           2             7    6     1      -0.3183361612E-02       7    6    1        -0.1770488404E+00      0.1864401419E+00
          0                 5           2             7    6     1      -0.5621560292E-03       7    6    1        -0.3123881306E-01      0.4036599724E-01
          0                 6           1             7    6     1      -0.9938926022E-04       7    6    1        -0.5518795539E-02      0.1268531597E-01
          0                 7           1             8    2     1       0.4399729825E-04       8    2    1         0.1142640738E-02      0.5203417025E-02
          0                 8           1             8    2     1       0.1977423879E-04       8    2    1         0.5135512584E-03      0.2294151324E-02
          0                 9           1             8    2     1       0.8887367279E-05       8    2    1         0.2308115266E-03      0.1024495284E-02

    ------------------------------------------------
       NWT REQUIRED            9 OUTER ITERATIONS 
       AND A TOTAL OF         14 INNER ITERATIONS.
    ------------------------------------------------

 NO OUTPUT CONTROL FOR STRESS PERIOD   18   TIME STEP    8
 
 SOLVING FOR HEAD 
                                                   Max.-Head-Change                         Max.-Flux-Residual
  Residual-Control   Outer-Iter.   Inner-Iter.     Column Row Layer    Maximum-Head-Change  Column Row Layer    Maximum-Flux-Residual          L2-NORM 
          0                 1           2             7    6     1      -0.2889057476E+00       7    6    1        -0.1576859333E+02      0.1586484654E+02
          0                 2           2             7    6     1       0.3162141861E+00       7    6    1         0.1743317264E+02      0.1743751155E+02
          0                 3           2             7    6     1      -0.1805043742E-01       7    6    1        -0.1004849871E+01      0.1018271983E+01
          0                 4           2             7    6     1      -0.3183364802E-02       7    6    1        -0.1770491461E+00      0.1864364640E+00
          0                 5           2             7    6     1      -0.5621560150E-03       7    6    1        -0.3123883423E-01      0.4036247858E-01
          0                 6           1             7    6     1      -0.9938915781E-04       7    6    1        -0.5518793662E-02      0.1268300118E-01
          0                 7           1             8    2     1       0.4397685142E-04       8    2    1         0.1142110040E-02      0.5202242674E-02
          0                 8           1             8    2     1       0.1976504221E-04       8    2    1         0.5133125632E-03      0.2293599054E-02
          0                 9           1             8    2     1       0.8883231442E-05       8    2    1         0.2307041698E-03      0.1024240237E-02

    ------------------------------------------------
       NWT REQUIRED            9 OUTER ITERATIONS 
       AND A TOTAL OF         14 INNER ITERATIONS.
    ------------------------------------------------

 NO OUTPUT CONTROL FOR STRESS PERIOD   18   TIME STEP    9
 
 SOLVING FOR HEAD 
                                                   Max.-Head-Change                         Max.-Flux-Residual
  Residual-Control   Outer-Iter.   Inner-Iter.     Column Row Layer    Maximum-Head-Change  Column Row Layer    Maximum-Flux-Residual          L2-NORM 
          0                 1           2             7    6     1      -0.2889059568E+00       7    6    1        -0.1576861599E+02      0.1586410397E+02
          0                 2           2             7    6     1       0.3162139150E+00       7    6    1         0.1743317047E+02      0.1743749929E+02
          0                 3           2             7    6     1      -0.1805047379E-01       7    6    1        -0.1004852646E+01      0.1018268202E+01
          0                 4           2             7    6     1      -0.3183367844E-02       7    6    1        -0.1770494433E+00      0.1864320169E+00
          0                 5           2             7    6     1      -0.5621559764E-03       7    6    1        -0.3123885400E-01      0.4035829556E-01
          0                 6           1             7    6     1      -0.9938905380E-04       7    6    1        -0.5518791577E-02      0.1268028768E-01
          0                 7           1             8    2     1       0.4395559824E-04       8    2    1         0.1141558366E-02      0.5200897848E-02
          0                 8           1             8    2     1       0.1975548471E-04       8    2    1         0.5130644688E-03      0.2292976858E-02
          0                 9           1             8    2     1       0.8878933034E-05       8    2    1         0.2305925936E-03      0.1023955754E-02

    ------------------------------------------------
       NWT REQUIRED            9 OUTER ITERATIONS 
       AND A TOTAL OF         14 INNER ITERATIONS.
    ------------------------------------------------

 NO OUTPUT CONTROL FOR STRESS PERIOD   18   TIME STEP   10
 
 SOLVING FOR HEAD 
                                                   Max.-Head-Change                         Max.-Flux-Residual
  Residual-Control   Outer-Iter.   Inner-Iter.     Column Row Layer    Maximum-Head-Change  Column Row Layer    Maximum-Flux-Residual          L2-NORM 
          0                 1           2             7    6     1      -0.2889060384E+00       7    6    1        -0.1576863172E+02      0.1586351628E+02
          0                 2           2             7    6     1       0.3162136331E+00       7    6    1         0.1743316769E+02      0.1743748855E+02
          0                 3           2             7    6     1      -0.1805048060E-01       7    6    1        -0.1004853780E+01      0.1018263429E+01
          0                 4           2             7    6     1      -0.3183365645E-02       7    6    1        -0.1770494499E+00      0.1864275602E+00
          0                 5           2             7    6     1      -0.5621550087E-03       7    6    1        -0.3123882225E-01      0.4035419592E-01
          0                 6           1             7    6     1      -0.9938878303E-04       7    6    1        -0.5518780319E-02      0.1267764813E-01
          0                 7           1             8    2     1       0.4393438807E-04       8    2    1         0.1141007757E-02      0.5199581338E-02
          0                 8           1             8    2     1       0.1974594698E-04       8    2    1         0.5128168693E-03      0.2292378705E-02
          0                 9           1             8    2     1       0.8874644130E-05       8    2    1         0.2304812538E-03      0.1023709364E-02

    ------------------------------------------------
       NWT REQUIRED            9 OUTER ITERATIONS 
       AND A TOTAL OF         14 INNER ITERATIONS.
    ------------------------------------------------

 NO OUTPUT CONTROL FOR STRESS PERIOD   18   TIME STEP   11
 
 SOLVING FOR HEAD 
                                                   Max.-Head-Change                         Max.-Flux-Residual
  Residual-Control   Outer-Iter.   Inner-Iter.     Column Row Layer    Maximum-Head-Change  Column Row Layer    Maximum-Flux-Residual          L2-NORM 
          0                 1           2             7    6     1      -0.2888414524E+00       7    6    1        -0.1576512055E+02      0.1585952502E+02
          0                 2           2             7    6     1       0.3161427605E+00       7    6    1         0.1742927265E+02      0.1743358726E+02
          0                 3           2             7    6     1      -0.1804572300E-01       7    6    1        -0.1004589801E+01      0.1017994062E+01
          0                 4           2             7    6     1      -0.3182522617E-02       7    6    1        -0.1770027124E+00      0.1863766727E+00
          0                 5           2             7    6     1      -0.5620054553E-03       7    6    1        -0.3123053726E-01      0.4034202766E-01
          0                 6           1             7    6     1      -0.9936222459E-04       7    6    1        -0.5517310033E-02      0.1267331886E-01
          0                 7           1             8    2     1       0.4391402878E-04       8    2    1         0.1140479330E-02      0.5197719247E-02
          0                 8           1             8    2     1       0.1973679016E-04       8    2    1         0.5125792020E-03      0.2291528619E-02
          0                 9           1             8    2     1       0.8870525801E-05       8    2    1         0.2303743601E-03      0.1023299996E-02

    ------------------------------------------------
       NWT REQUIRED            9 OUTER ITERATIONS 
       AND A TOTAL OF         14 INNER ITERATIONS.
    ------------------------------------------------

 NO OUTPUT CONTROL FOR STRESS PERIOD   18   TIME STEP   12
 
 SOLVING FOR HEAD 
                                                   Max.-Head-Change                         Max.-Flux-Residual
  Residual-Control   Outer-Iter.   Inner-Iter.     Column Row Layer    Maximum-Head-Change  Column Row Layer    Maximum-Flux-Residual          L2-NORM 
          0                 1           2             7    6     1      -0.2888976836E+00       7    6    1        -0.1576819865E+02      0.1586215982E+02
          0                 2           2             7    6     1       0.3162035675E+00       7    6    1         0.1743263823E+02      0.1743694606E+02
          0                 3           2             7    6     1      -0.1804990488E-01       7    6    1        -0.1004823253E+01      0.1018220553E+01
          0                 4           2             7    6     1      -0.3183257253E-02       7    6    1        -0.1770436814E+00      0.1864109548E+00
          0                 5           2             7    6     1      -0.5621346973E-03       7    6    1        -0.3123773801E-01      0.4034325634E-01
          0                 6           1             7    6     1      -0.9938499255E-04       7    6    1        -0.5518577411E-02      0.1267103309E-01
          0                 7           1             8    2     1       0.4389286463E-04       8    2    1         0.1139929942E-02      0.5196345724E-02
          0                 8           1             8    2     1       0.1972727194E-04       8    2    1         0.5123321322E-03      0.2290910646E-02
          0                 9           1             8    2     1       0.8866245401E-05       8    2    1         0.2302632513E-03      0.1023132887E-02

    ------------------------------------------------
       NWT REQUIRED            9 OUTER ITERATIONS 
       AND A TOTAL OF         14 INNER ITERATIONS.
    ------------------------------------------------

 NO OUTPUT CONTROL FOR STRESS PERIOD   18   TIME STEP   13
 
 SOLVING FOR HEAD 
                                                   Max.-Head-Change                         Max.-Flux-Residual
  Residual-Control   Outer-Iter.   Inner-Iter.     Column Row Layer    Maximum-Head-Change  Column Row Layer    Maximum-Flux-Residual          L2-NORM 
          0                 1           2             7    6     1      -0.2888654018E+00       7    6    1        -0.1576644915E+02      0.1586001344E+02
          0                 2           2             7    6     1       0.3161680334E+00       7    6    1         0.1743069172E+02      0.1743499237E+02
          0                 3           2             7    6     1      -0.1804751805E-01       7    6    1        -0.1004691193E+01      0.1018080391E+01
          0                 4           2             7    6     1      -0.3182832629E-02       7    6    1        -0.1770202039E+00      0.1863809390E+00
          0                 5           2             7    6     1      -0.5620590827E-03       7    6    1        -0.3123355993E-01      0.4033314325E-01
          0                 6           1             7    6     1      -0.9937151550E-04       7    6    1        -0.5517833178E-02      0.1266667251E-01
          0                 7           1             8    2     1       0.4387173000E-04       8    2    1         0.1139381333E-02      0.5194133057E-02
          0                 8           1             8    2     1       0.1971776797E-04       8    2    1         0.5120854207E-03      0.2289875129E-02
          0                 9           1             8    2     1       0.8861971253E-05       8    2    1         0.2301523006E-03      0.1022554199E-02

    ------------------------------------------------
       NWT REQUIRED            9 OUTER ITERATIONS 
       AND A TOTAL OF         14 INNER ITERATIONS.
    ------------------------------------------------

 NO OUTPUT CONTROL FOR STRESS PERIOD   18   TIME STEP   14
 
 SOLVING FOR HEAD 
                                                   Max.-Head-Change                         Max.-Flux-Residual
  Residual-Control   Outer-Iter.   Inner-Iter.     Column Row Layer    Maximum-Head-Change  Column Row Layer    Maximum-Flux-Residual          L2-NORM 
          0                 1           2             7    6     1      -0.2887843482E+00       7    6    1        -0.1576203980E+02      0.1585529355E+02
          0                 2           2             7    6     1       0.3160792316E+00       7    6    1         0.1742580808E+02      0.1743010445E+02
          0                 3           2             7    6     1      -0.1804154295E-01       7    6    1        -0.1004359467E+01      0.1017745159E+01
          0                 4           2             7    6     1      -0.3181774731E-02       7    6    1        -0.1769615213E+00      0.1863203777E+00
          0                 5           2             7    6     1      -0.5618715585E-03       7    6    1        -0.3122316586E-01      0.4032072886E-01
          0                 6           1             7    6     1      -0.9933823837E-04       7    6    1        -0.5515990021E-02      0.1266264714E-01
          0                 7           1             8    2     1       0.4385062638E-04       8    2    1         0.1138833519E-02      0.5192666865E-02
          0                 8           1             8    2     1       0.1970827750E-04       8    2    1         0.5118390665E-03      0.2289292500E-02
          0                 9           1             8    2     1       0.8857703609E-05       8    2    1         0.2300415173E-03      0.1022498578E-02

    ------------------------------------------------
       NWT REQUIRED            9 OUTER ITERATIONS 
       AND A TOTAL OF         14 INNER ITERATIONS.
    ------------------------------------------------

 NO OUTPUT CONTROL FOR STRESS PERIOD   18   TIME STEP   15
 
 SOLVING FOR HEAD 
                                                   Max.-Head-Change                         Max.-Flux-Residual
  Residual-Control   Outer-Iter.   Inner-Iter.     Column Row Layer    Maximum-Head-Change  Column Row Layer    Maximum-Flux-Residual          L2-NORM 
          0                 1           2             7    6     1      -0.2887520554E+00       7    6    1        -0.1576028967E+02      0.1585328054E+02
          0                 2           2             7    6     1       0.3160435777E+00       7    6    1         0.1742385497E+02      0.1742814710E+02
          0                 3           2             7    6     1      -0.1803917600E-01       7    6    1        -0.1004228511E+01      0.1017609922E+01
          0                 4           2             7    6     1      -0.3181353627E-02       7    6    1        -0.1769382391E+00      0.1862933491E+00
          0                 5           2             7    6     1      -0.5617965683E-03       7    6    1        -0.3121902238E-01      0.4031299405E-01
          0                 6           1             7    6     1      -0.9932487221E-04       7    6    1        -0.5515251913E-02      0.1265936122E-01
          0                 7           1             8    2     1       0.4382955377E-04       8    2    1         0.1138286502E-02      0.5191135626E-02
          0                 8           1             8    2     1       0.1969880080E-04       8    2    1         0.5115930670E-03      0.2288511829E-02
          0                 9           1             8    2     1       0.8853441967E-05       8    2    1         0.2299308924E-03      0.1021929208E-02

    ------------------------------------------------
       NWT REQUIRED            9 OUTER ITERATIONS 
       AND A TOTAL OF         14 INNER ITERATIONS.
    ------------------------------------------------

 NO OUTPUT CONTROL FOR STRESS PERIOD   18   TIME STEP   16
 
 SOLVING FOR HEAD 
                                                   Max.-Head-Change                         Max.-Flux-Residual
  Residual-Control   Outer-Iter.   Inner-Iter.     Column Row Layer    Maximum-Head-Change  Column Row Layer    Maximum-Flux-Residual          L2-NORM 
          0                 1           2             7    6     1      -0.2888939279E+00       7    6    1        -0.1576803887E+02      0.1586072524E+02
          0                 2           2             7    6     1       0.3161977458E+00       7    6    1         0.1743236832E+02      0.1743665337E+02
          0                 3           2             7    6     1      -0.1804969551E-01       7    6    1        -0.1004814627E+01      0.1018186181E+01
          0                 4           2             7    6     1      -0.3183206693E-02       7    6    1        -0.1770413862E+00      0.1863862073E+00
          0                 5           2             7    6     1      -0.5621234438E-03       7    6    1        -0.3123720101E-01      0.4032228493E-01
          0                 6           1             7    6     1      -0.9938260600E-04       7    6    1        -0.5518459953E-02      0.1265761722E-01
          0                 7           1             8    2     1       0.4380850493E-04       8    2    1         0.1137740127E-02      0.5189683651E-02
          0                 8           1             8    2     1       0.1968933509E-04       8    2    1         0.5113473529E-03      0.2287796256E-02
          0                 9           1             8    2     1       0.8849184576E-05       8    2    1         0.2298203848E-03      0.1021601676E-02

    ------------------------------------------------
       NWT REQUIRED            9 OUTER ITERATIONS 
       AND A TOTAL OF         14 INNER ITERATIONS.
    ------------------------------------------------

 NO OUTPUT CONTROL FOR STRESS PERIOD   18   TIME STEP   17
 
 SOLVING FOR HEAD 
                                                   Max.-Head-Change                         Max.-Flux-Residual
  Residual-Control   Outer-Iter.   Inner-Iter.     Column Row Layer    Maximum-Head-Change  Column Row Layer    Maximum-Flux-Residual          L2-NORM 
          0                 1           2             7    6     1      -0.2888179645E+00       7    6    1        -0.1576390703E+02      0.1585638140E+02
          0                 2           2             7    6     1       0.3161146318E+00       7    6    1         0.1742779830E+02      0.1743207874E+02
          0                 3           2             7    6     1      -0.1804407728E-01       7    6    1        -0.1004502760E+01      0.1017867217E+01
          0                 4           2             7    6     1      -0.3182211768E-02       7    6    1        -0.1769862048E+00      0.1863248491E+00
          0                 5           2             7    6     1      -0.5619470473E-03       7    6    1        -0.3122742504E-01      0.4030653426E-01
          0                 6           1             7    6     1      -0.9935129705E-04       7    6    1        -0.5516726055E-02      0.1265163183E-01
          0                 7           1             8    2     1       0.4378749285E-04       8    2    1         0.1137194683E-02      0.5187037189E-02
          0                 8           1             8    2     1       0.1967988615E-04       8    2    1         0.5111020709E-03      0.2286608558E-02
          0                 9           1             8    2     1       0.8844935690E-05       8    2    1         0.2297100842E-03      0.1021079373E-02

    ------------------------------------------------
       NWT REQUIRED            9 OUTER ITERATIONS 
       AND A TOTAL OF         14 INNER ITERATIONS.
    ------------------------------------------------

 NO OUTPUT CONTROL FOR STRESS PERIOD   18   TIME STEP   18
 
 SOLVING FOR HEAD 
                                                   Max.-Head-Change                         Max.-Flux-Residual
  Residual-Control   Outer-Iter.   Inner-Iter.     Column Row Layer    Maximum-Head-Change  Column Row Layer    Maximum-Flux-Residual          L2-NORM 
          0                 1           2             7    6     1      -0.2888863597E+00       7    6    1        -0.1576764858E+02      0.1585988915E+02
          0                 2           2             7    6     1       0.3161887263E+00       7    6    1         0.1743189654E+02      0.1743621357E+02
          0                 3           2             7    6     1      -0.2939063982E+00       7    6    1        -0.1632772440E+02      0.1632855205E+02
          0                 4           2             7    6     1       0.2866387978E+00       7    6    1         0.1609525699E+02      0.1609557429E+02
          0                 5           2             7    6     1      -0.1184687267E-01       7    6    1        -0.6718455278E+00      0.6762421370E+00
          0                 6           2             7    6     1      -0.2264562200E-02       7    6    1        -0.1283116855E+00      0.1291557070E+00
          0                 7           2             7    6     1      -0.4333677192E-03       7    6    1        -0.2453481471E-01      0.2508093703E-01
          0                 8           1             7    6     1      -0.8301983289E-04       7    6    1        -0.4696528561E-02      0.5223674465E-02
          0                 9           1             7    6     1      -0.1591924849E-04       7    6    1        -0.8999338122E-03      0.1362463629E-02
          0                10           1             8    2     1       0.3973360077E-05       7    6    1        -0.1726001151E-03      0.4892652119E-03

    ------------------------------------------------
       NWT REQUIRED           10 OUTER ITERATIONS 
       AND A TOTAL OF         17 INNER ITERATIONS.
    ------------------------------------------------

 NO OUTPUT CONTROL FOR STRESS PERIOD   18   TIME STEP   19
 
 SOLVING FOR HEAD 
                                                   Max.-Head-Change                         Max.-Flux-Residual
  Residual-Control   Outer-Iter.   Inner-Iter.     Column Row Layer    Maximum-Head-Change  Column Row Layer    Maximum-Flux-Residual          L2-NORM 
          0                 1           2             7    6     1      -0.2764937408E+00       7    6    1        -0.1509174703E+02      0.1518793244E+02
          0                 2           2             7    6     1       0.3026821489E+00       7    6    1         0.1668717619E+02      0.1669168460E+02
          0                 3           2             7    6     1      -0.2911527954E+00       7    6    1        -0.1617469040E+02      0.1617550427E+02
          0                 4           2             7    6     1       0.2848837069E+00       7    6    1         0.1599672142E+02      0.1599703872E+02
          0                 5           2             7    6     1      -0.1175390964E-01       7    6    1        -0.6665745555E+00      0.6709492430E+00
          0                 6           2             7    6     1      -0.2246787216E-02       7    6    1        -0.1273047392E+00      0.1281504322E+00
          0                 7           2             7    6     1      -0.4299652201E-03       7    6    1        -0.2434222218E-01      0.2489189103E-01
          0                 8           1             7    6     1      -0.8236784054E-04       7    6    1        -0.4659651692E-02      0.5190097045E-02
          0                 9           1             7    6     1      -0.1579419315E-04       7    6    1        -0.8928657778E-03      0.1357461610E-02
          0                10           1             8    2     1       0.3971451730E-05       7    6    1        -0.1712441294E-03      0.4885974614E-03

    ------------------------------------------------
       NWT REQUIRED           10 OUTER ITERATIONS 
       AND A TOTAL OF         17 INNER ITERATIONS.
    ------------------------------------------------

 NO OUTPUT CONTROL FOR STRESS PERIOD   18   TIME STEP   20
 
 SOLVING FOR HEAD 
                                                   Max.-Head-Change                         Max.-Flux-Residual
  Residual-Control   Outer-Iter.   Inner-Iter.     Column Row Layer    Maximum-Head-Change  Column Row Layer    Maximum-Flux-Residual          L2-NORM 
          0                 1           2             7    6     1      -0.2746235527E+00       7    6    1        -0.1498975479E+02      0.1508644933E+02
          0                 2           2             7    6     1       0.3006434634E+00       7    6    1         0.1657477814E+02      0.1657925984E+02
          0                 3           2             7    6     1      -0.3047276469E+00       7    6    1        -0.1692872674E+02      0.1692950067E+02
          0                 4           2             7    6     1       0.2995907201E+00       7    6    1         0.1682258170E+02      0.1682291057E+02
          0                 5           2             7    6     1      -0.1253363248E-01       7    6    1        -0.7107793629E+00      0.7152923473E+00
          0                 6           2             7    6     1      -0.2395899101E-02       7    6    1        -0.1357509671E+00      0.1365753949E+00
          0                 7           2             7    6     1      -0.4585126808E-03       7    6    1        -0.2595794498E-01      0.2647542256E-01
          0                 8           1             7    6     1      -0.8783890639E-04       7    6    1        -0.4969069119E-02      0.5472486347E-02
          0                 9           1             7    6     1      -0.1684370892E-04       7    6    1        -0.9521782245E-03      0.1399153976E-02
          0                10           1             8    2     1       0.3969545383E-05       7    6    1        -0.1826244827E-03      0.5043102824E-03

    ------------------------------------------------
       NWT REQUIRED           10 OUTER ITERATIONS 
       AND A TOTAL OF         17 INNER ITERATIONS.
    ------------------------------------------------

 NO OUTPUT CONTROL FOR STRESS PERIOD   18   TIME STEP   21
 
 SOLVING FOR HEAD 
                                                   Max.-Head-Change                         Max.-Flux-Residual
  Residual-Control   Outer-Iter.   Inner-Iter.     Column Row Layer    Maximum-Head-Change  Column Row Layer    Maximum-Flux-Residual          L2-NORM 
          0                 1           2             7    6     1      -0.2882476065E+00       7    6    1        -0.1573284372E+02      0.1582484108E+02
          0                 2           2             7    6     1       0.3154913127E+00       7    6    1         0.1739348043E+02      0.1739778583E+02
          0                 3           2             7    6     1      -0.2948848651E+00       7    6    1        -0.1638210718E+02      0.1638292969E+02
          0                 4           2             7    6     1       0.2877474361E+00       7    6    1         0.1615754620E+02      0.1615786419E+02
          0                 5           2             7    6     1      -0.1190578820E-01       7    6    1        -0.6751870982E+00      0.6795928169E+00
          0                 6           2             7    6     1      -0.2275822635E-02       7    6    1        -0.1289497903E+00      0.1297910100E+00
          0                 7           2             7    6     1      -0.4355223409E-03       7    6    1        -0.2465681244E-01      0.2519927745E-01
          0                 8           1             7    6     1      -0.8343254083E-04       7    6    1        -0.4719878823E-02      0.5243600532E-02
          0                 9           1             7    6     1      -0.1599837718E-04       7    6    1        -0.9044074627E-03      0.1364588137E-02
          0                10           1             8    2     1       0.3967643039E-05       7    6    1        -0.1734580460E-03      0.4890964104E-03

    ------------------------------------------------
       NWT REQUIRED           10 OUTER ITERATIONS 
       AND A TOTAL OF         17 INNER ITERATIONS.
    ------------------------------------------------

 NO OUTPUT CONTROL FOR STRESS PERIOD   18   TIME STEP   22
 
 SOLVING FOR HEAD 
                                                   Max.-Head-Change                         Max.-Flux-Residual
  Residual-Control   Outer-Iter.   Inner-Iter.     Column Row Layer    Maximum-Head-Change  Column Row Layer    Maximum-Flux-Residual          L2-NORM 
          0                 1           2             7    6     1      -0.2775393906E+00       7    6    1        -0.1514881079E+02      0.1524416703E+02
          0                 2           2             7    6     1       0.3038205002E+00       7    6    1         0.1674998007E+02      0.1675441428E+02
          0                 3           2             7    6     1      -0.3013331279E+00       7    6    1        -0.1674021952E+02      0.1674100615E+02
          0                 4           2             7    6     1       0.2956777620E+00       7    6    1         0.1660287865E+02      0.1660320579E+02
          0                 5           2             7    6     1      -0.2878880604E+00       7    6    1        -0.1628706546E+02      0.1628725819E+02
          0                 6           2             7    6     1       0.2821577883E+00       7    6    1         0.1613477516E+02      0.1613499605E+02
          0                 7           2             7    6     1      -0.7555963140E-02       7    6    1        -0.4369007097E+00      0.4425121643E+00
          0                 8           2             7    6     1      -0.1552157741E-02       7    6    1        -0.8967020519E-01      0.9039907215E-01
          0                 9           2             7    6     1      -0.3191747980E-03       7    6    1        -0.1842400433E-01      0.1853192262E-01
          0                10           1             7    6     1      -0.6569601703E-04       7    6    1        -0.3789311352E-02      0.3825144227E-02
                                                   Max.-Head-Change                         Max.-Flux-Residual
  Residual-Control   Outer-Iter.   Inner-Iter.     Column Row Layer    Maximum-Head-Change  Column Row Layer    Maximum-Flux-Residual          L2-NORM 
          0                11           1             7    6     1      -0.1353435380E-04       7    6    1        -0.7800898970E-03      0.8078115084E-03
          0                12           1             7    6     1      -0.2790595557E-05       7    6    1        -0.1607350393E-03      0.1856960648E-03

    ------------------------------------------------
       NWT REQUIRED           12 OUTER ITERATIONS 
       AND A TOTAL OF         21 INNER ITERATIONS.
    ------------------------------------------------

 NO OUTPUT CONTROL FOR STRESS PERIOD   18   TIME STEP   23
 
 SOLVING FOR HEAD 
                                                   Max.-Head-Change                         Max.-Flux-Residual
  Residual-Control   Outer-Iter.   Inner-Iter.     Column Row Layer    Maximum-Head-Change  Column Row Layer    Maximum-Flux-Residual          L2-NORM 
          0                 1           2             7    6     1      -0.2813549183E+00       7    6    1        -0.1535692706E+02      0.1545086873E+02
          0                 2           2             7    6     1       0.3079784100E+00       7    6    1         0.1697925415E+02      0.1698363816E+02
          0                 3           2             7    6     1      -0.2975689052E+00       7    6    1        -0.1653117012E+02      0.1653197273E+02
          0                 4           2             7    6     1       0.2912826239E+00       7    6    1         0.1635608647E+02      0.1635640785E+02
          0                 5           2             7    6     1      -0.2868454038E+00       7    6    1        -0.1622806722E+02      0.1622825527E+02
          0                 6           2             7    6     1       0.2813649080E+00       7    6    1         0.1608944907E+02      0.1608966973E+02
          0                 7           2             7    6     1      -0.7525554882E-02       7    6    1        -0.4351436407E+00      0.4407406612E+00
          0                 8           2             7    6     1      -0.1545905967E-02       7    6    1        -0.8930926880E-01      0.9003669715E-01
          0                 9           2             7    6     1      -0.3178881887E-03       7    6    1        -0.1834978314E-01      0.1845767612E-01
          0                10           1             7    6     1      -0.6543098769E-04       7    6    1        -0.3774033887E-02      0.3809955000E-02
                                                   Max.-Head-Change                         Max.-Flux-Residual
  Residual-Control   Outer-Iter.   Inner-Iter.     Column Row Layer    Maximum-Head-Change  Column Row Layer    Maximum-Flux-Residual          L2-NORM 
          0                11           1             7    6     1      -0.1347971269E-04       7    6    1        -0.7769423289E-03      0.8047512919E-03
          0                12           1             7    6     1      -0.2779321194E-05       7    6    1        -0.1600860037E-03      0.1851276582E-03

    ------------------------------------------------
       NWT REQUIRED           12 OUTER ITERATIONS 
       AND A TOTAL OF         21 INNER ITERATIONS.
    ------------------------------------------------

 NO OUTPUT CONTROL FOR STRESS PERIOD   18   TIME STEP   24
 
 SOLVING FOR HEAD 
                                                   Max.-Head-Change                         Max.-Flux-Residual
  Residual-Control   Outer-Iter.   Inner-Iter.     Column Row Layer    Maximum-Head-Change  Column Row Layer    Maximum-Flux-Residual          L2-NORM 
          0                 1           2             7    6     1      -0.2805153831E+00       7    6    1        -0.1531114837E+02      0.1540524818E+02
          0                 2           2             7    6     1       0.3070631230E+00       7    6    1         0.1692879879E+02      0.1693320247E+02
          0                 3           2             7    6     1      -0.2946093497E+00       7    6    1        -0.1636678224E+02      0.1636759116E+02
          0                 4           2             7    6     1       0.2881962076E+00       7    6    1         0.1618278578E+02      0.1618310479E+02
          0                 5           2             7    6     1      -0.1192973400E-01       7    6    1        -0.6765454829E+00      0.6809512516E+00
          0                 6           2             7    6     1      -0.2280398532E-02       7    6    1        -0.1292091433E+00      0.1300482656E+00
          0                 7           2             7    6     1      -0.4363977400E-03       7    6    1        -0.2470638832E-01      0.2524671341E-01
          0                 8           1             7    6     1      -0.8360018345E-04       7    6    1        -0.4729365620E-02      0.5251086035E-02
          0                 9           1             7    6     1      -0.1603051269E-04       7    6    1        -0.9062246138E-03      0.1364970539E-02
          0                10           1             8    2     1       0.3961947510E-05       7    6    1        -0.1738064439E-03      0.4887527227E-03

    ------------------------------------------------
       NWT REQUIRED           10 OUTER ITERATIONS 
       AND A TOTAL OF         17 INNER ITERATIONS.
    ------------------------------------------------

 NO OUTPUT CONTROL FOR STRESS PERIOD   18   TIME STEP   25
 
 SOLVING FOR HEAD 
                                                   Max.-Head-Change                         Max.-Flux-Residual
  Residual-Control   Outer-Iter.   Inner-Iter.     Column Row Layer    Maximum-Head-Change  Column Row Layer    Maximum-Flux-Residual          L2-NORM 
          0                 1           2             7    6     1      -0.2778424032E+00       7    6    1        -0.1516537002E+02      0.1526025891E+02
          0                 2           2             7    6     1       0.3041495341E+00       7    6    1         0.1676815942E+02      0.1677257732E+02
          0                 3           2             7    6     1      -0.3009042212E+00       7    6    1        -0.1671643518E+02      0.1671722221E+02
          0                 4           2             7    6     1       0.2951897347E+00       7    6    1         0.1657551022E+02      0.1657583628E+02
          0                 5           2             7    6     1      -0.2878583361E+00       7    6    1        -0.1628541762E+02      0.1628560972E+02
          0                 6           2             7    6     1       0.2821601736E+00       7    6    1         0.1613494706E+02      0.1613516802E+02
          0                 7           2             7    6     1      -0.7556191517E-02       7    6    1        -0.4369148657E+00      0.4425259668E+00
          0                 8           2             7    6     1      -0.1552200690E-02       7    6    1        -0.8967287708E-01      0.9040162562E-01
          0                 9           2             7    6     1      -0.3191828343E-03       7    6    1        -0.1842450654E-01      0.1853235210E-01
          0                10           1             7    6     1      -0.6569751167E-04       7    6    1        -0.3789405265E-02      0.3825173951E-02
                                                   Max.-Head-Change                         Max.-Flux-Residual
  Residual-Control   Outer-Iter.   Inner-Iter.     Column Row Layer    Maximum-Head-Change  Column Row Layer    Maximum-Flux-Residual          L2-NORM 
          0                11           1             7    6     1      -0.1353462921E-04       7    6    1        -0.7801073320E-03      0.8077680489E-03
          0                12           1             7    6     1      -0.2790646472E-05       7    6    1        -0.1607382626E-03      0.1856460853E-03

    ------------------------------------------------
       NWT REQUIRED           12 OUTER ITERATIONS 
       AND A TOTAL OF         21 INNER ITERATIONS.
    ------------------------------------------------

 NO OUTPUT CONTROL FOR STRESS PERIOD   18   TIME STEP   26
 
 SOLVING FOR HEAD 
                                                   Max.-Head-Change                         Max.-Flux-Residual
  Residual-Control   Outer-Iter.   Inner-Iter.     Column Row Layer    Maximum-Head-Change  Column Row Layer    Maximum-Flux-Residual          L2-NORM 
          0                 1           2             7    6     1      -0.2813518159E+00       7    6    1        -0.1535679071E+02      0.1545038475E+02
          0                 2           2             7    6     1       0.3079738379E+00       7    6    1         0.1697903937E+02      0.1698341233E+02
          0                 3           2             7    6     1      -0.2967956518E+00       7    6    1        -0.1648825559E+02      0.1648905896E+02
          0                 4           2             7    6     1       0.2904555277E+00       7    6    1         0.1630967772E+02      0.1630999820E+02
          0                 5           2             7    6     1      -0.1204961906E-01       7    6    1        -0.6833432354E+00      0.6877698932E+00
          0                 6           2             7    6     1      -0.2303320134E-02       7    6    1        -0.1305077100E+00      0.1313427517E+00
          0                 7           2             7    6     1      -0.4407851807E-03       7    6    1        -0.2495474579E-01      0.2548920010E-01
          0                 8           1             7    6     1      -0.8444086166E-04       7    6    1        -0.4776917432E-02      0.5293167101E-02
          0                 9           1             7    6     1      -0.1619174925E-04       7    6    1        -0.9153380736E-03      0.1370430076E-02
          0                10           1             8    2     1       0.3958088797E-05       7    6    1        -0.1755547237E-03      0.4890320566E-03

    ------------------------------------------------
       NWT REQUIRED           10 OUTER ITERATIONS 
       AND A TOTAL OF         17 INNER ITERATIONS.
    ------------------------------------------------

 NO OUTPUT CONTROL FOR STRESS PERIOD   18   TIME STEP   27
 
 SOLVING FOR HEAD 
                                                   Max.-Head-Change                         Max.-Flux-Residual
  Residual-Control   Outer-Iter.   Inner-Iter.     Column Row Layer    Maximum-Head-Change  Column Row Layer    Maximum-Flux-Residual          L2-NORM 
          0                 1           2             7    6     1      -0.2800066714E+00       7    6    1        -0.1528343485E+02      0.1537736341E+02
          0                 2           2             7    6     1       0.3065074032E+00       7    6    1         0.1689819427E+02      0.1690258527E+02
          0                 3           2             7    6     1      -0.2960076011E+00       7    6    1        -0.1644448408E+02      0.1644528685E+02
          0                 4           2             7    6     1       0.2897415767E+00       7    6    1         0.1626959939E+02      0.1626991938E+02
          0                 5           2             7    6     1      -0.1201182913E-01       7    6    1        -0.6812012190E+00      0.6856201909E+00
          0                 6           2             7    6     1      -0.2296091563E-02       7    6    1        -0.1300983343E+00      0.1309339114E+00
          0                 7           2             7    6     1      -0.4394009451E-03       7    6    1        -0.2487641547E-01      0.2541199845E-01
          0                 8           1             7    6     1      -0.8417551418E-04       7    6    1        -0.4761913308E-02      0.5279198639E-02
          0                 9           1             7    6     1      -0.1614083600E-04       7    6    1        -0.9124612391E-03      0.1368176731E-02
          0                10           1             8    2     1       0.3956203710E-05       7    6    1        -0.1750026152E-03      0.4886471327E-03

    ------------------------------------------------
       NWT REQUIRED           10 OUTER ITERATIONS 
       AND A TOTAL OF         17 INNER ITERATIONS.
    ------------------------------------------------

 NO OUTPUT CONTROL FOR STRESS PERIOD   18   TIME STEP   28
 
 SOLVING FOR HEAD 
                                                   Max.-Head-Change                         Max.-Flux-Residual
  Residual-Control   Outer-Iter.   Inner-Iter.     Column Row Layer    Maximum-Head-Change  Column Row Layer    Maximum-Flux-Residual          L2-NORM 
          0                 1           2             7    6     1      -0.2793058002E+00       7    6    1        -0.1524521883E+02      0.1533929632E+02
          0                 2           2             7    6     1       0.3057431358E+00       7    6    1         0.1685606578E+02      0.1686045707E+02
          0                 3           2             7    6     1      -0.2978975946E+00       7    6    1        -0.1654947475E+02      0.1655027084E+02
          0                 4           2             7    6     1       0.2918315855E+00       7    6    1         0.1638697322E+02      0.1638729493E+02
          0                 5           2             7    6     1      -0.2869061803E+00       7    6    1        -0.1623156998E+02      0.1623175856E+02
          0                 6           2             7    6     1       0.2813909510E+00       7    6    1         0.1609099640E+02      0.1609121698E+02
          0                 7           2             7    6     1      -0.7526798519E-02       7    6    1        -0.4352172671E+00      0.4408151410E+00
          0                 8           2             7    6     1      -0.1546154248E-02       7    6    1        -0.8932395555E-01      0.9005137553E-01
          0                 9           2             7    6     1      -0.3179378053E-03       7    6    1        -0.1835271597E-01      0.1846050271E-01
          0                10           1             7    6     1      -0.6544091224E-04       7    6    1        -0.3774620130E-02      0.3810427475E-02
                                                   Max.-Head-Change                         Max.-Flux-Residual
  Residual-Control   Outer-Iter.   Inner-Iter.     Column Row Layer    Maximum-Head-Change  Column Row Layer    Maximum-Flux-Residual          L2-NORM 
          0                11           1             7    6     1      -0.1348169944E-04       7    6    1        -0.7770596073E-03      0.8047567359E-03
          0                12           1             7    6     1      -0.2779719165E-05       7    6    1        -0.1601094937E-03      0.1850409363E-03

    ------------------------------------------------
       NWT REQUIRED           12 OUTER ITERATIONS 
       AND A TOTAL OF         21 INNER ITERATIONS.
    ------------------------------------------------

 NO OUTPUT CONTROL FOR STRESS PERIOD   18   TIME STEP   29
 
 SOLVING FOR HEAD 
                                                   Max.-Head-Change                         Max.-Flux-Residual
  Residual-Control   Outer-Iter.   Inner-Iter.     Column Row Layer    Maximum-Head-Change  Column Row Layer    Maximum-Flux-Residual          L2-NORM 
          0                 1           2             7    6     1      -0.2805497488E+00       7    6    1        -0.1531307711E+02      0.1540570930E+02
          0                 2           2             7    6     1       0.3070985557E+00       7    6    1         0.1693081457E+02      0.1693516200E+02
          0                 3           2             7    6     1      -0.2952339632E+00       7    6    1        -0.1640153960E+02      0.1640234381E+02
          0                 4           2             7    6     1       0.2888615091E+00       7    6    1         0.1622020368E+02      0.1622052275E+02
          0                 5           2             7    6     1      -0.1196525726E-01       7    6    1        -0.6785620384E+00      0.6829722486E+00
          0                 6           2             7    6     1      -0.2287180429E-02       7    6    1        -0.1295937829E+00      0.1304298651E+00
          0                 7           2             7    6     1      -0.4376940075E-03       7    6    1        -0.2477984500E-01      0.2531654209E-01
          0                 8           1             7    6     1      -0.8384821551E-04       7    6    1        -0.4743409993E-02      0.5261682829E-02
          0                 9           1             7    6     1      -0.1607801954E-04       7    6    1        -0.9089125422E-03      0.1365161301E-02
          0                10           1             8    2     1       0.3952363505E-05       7    6    1        -0.1743213809E-03      0.4880365842E-03

    ------------------------------------------------
       NWT REQUIRED           10 OUTER ITERATIONS 
       AND A TOTAL OF         17 INNER ITERATIONS.
    ------------------------------------------------

 NO OUTPUT CONTROL FOR STRESS PERIOD   18   TIME STEP   30



 STREAM LISTING     PERIOD     18   STEP       30

 LAYER ROW COL. STREAM  RCH.  FLOW INTO     FLOW TO   FLOW OUT OF   OVRLND.     DIRECT     STREAM       STREAM     STREAM     STREAM   STREAMBED  STREAMBED
                SEG.NO.  NO.  STRM. RCH.    AQUIFER    STRM. RCH.    RUNOFF     PRECIP       ET          HEAD       DEPTH      WIDTH   CONDCTNC.   GRADIENT

   1    1    1     1     1    6.1402E+01  3.7685E-01   6.1025E+01  0.000E+00  0.000E+00  0.000E+00  1.09459E+03  1.542E+00  1.844E+01  8.296E-02  1.514E+00
   1    2    2     1     2    6.1025E+01  5.8362E-01   6.0441E+01  0.000E+00  0.000E+00  0.000E+00  1.08960E+03  1.537E+00  1.838E+01  1.286E-01  1.512E+00
   1    3    3     1     3    6.0441E+01  4.9774E-01   5.9944E+01  0.000E+00  0.000E+00  0.000E+00  1.08395E+03  1.530E+00  1.831E+01  1.099E-01  1.510E+00
   1    3    4     1     4    5.9944E+01  4.5835E-01   5.9485E+01  0.000E+00  0.000E+00  0.000E+00  1.07893E+03  1.524E+00  1.825E+01  1.013E-01  1.508E+00
   1    4    5     2     1    5.7485E+01  0.0000E+00   5.7485E+01  0.000E+00  0.000E+00  0.000E+00  1.07392E+03  1.990E+00  1.200E+01  0.000E+00  1.663E+00
   1    5    6     2     2    5.7485E+01  0.0000E+00   5.7485E+01  0.000E+00  0.000E+00  0.000E+00  1.06850E+03  1.990E+00  1.200E+01  0.000E+00  1.663E+00
   1    6    6     2     3    5.7485E+01  0.0000E+00   5.7485E+01  0.000E+00  0.000E+00  0.000E+00  1.06378E+03  1.990E+00  1.200E+01  0.000E+00  1.663E+00
   1    7    6     2     4    5.7485E+01  0.0000E+00   5.7485E+01  0.000E+00  0.000E+00  0.000E+00  1.05907E+03  1.990E+00  1.200E+01  0.000E+00  1.663E+00
   1    8    6     2     5    5.7485E+01  0.0000E+00   5.7485E+01  0.000E+00  0.000E+00  0.000E+00  1.05435E+03  1.990E+00  1.200E+01  0.000E+00  1.663E+00
   1    3    5     3     1    2.0000E+00  2.8252E-01   1.7175E+00  0.000E+00  0.000E+00  0.000E+00  1.07555E+03  1.909E+00  9.636E+00  7.227E-02  1.955E+00
   1    3    6     3     2    1.7175E+00  2.4905E-01   1.4684E+00  0.000E+00  0.000E+00  0.000E+00  1.07264E+03  1.727E+00  8.909E+00  6.682E-02  1.864E+00
   1    3    7     3     3    1.4684E+00  1.9718E-01   1.2712E+00  0.000E+00  0.000E+00  0.000E+00  1.06987E+03  1.555E+00  8.218E+00  5.547E-02  1.777E+00
   1    4    8     3     4    1.2712E+00  2.2567E-01   1.0456E+00  0.000E+00  0.000E+00  0.000E+00  1.06682E+03  1.364E+00  7.455E+00  6.709E-02  1.682E+00
   1    5    8     3     5    1.0456E+00  1.5790E-01   8.8768E-01  0.000E+00  0.000E+00  0.000E+00  1.06362E+03  1.164E+00  6.655E+00  4.991E-02  1.582E+00
   1    6    8     3     6    8.8768E-01  5.5980E-02   8.3170E-01  0.000E+00  0.000E+00  0.000E+00  1.06158E+03  1.036E+00  6.145E+00  1.844E-02  1.518E+00
   1    5   10     4     1    1.0000E+01  0.0000E+00   1.0000E+01  0.000E+00  0.000E+00  0.000E+00  1.07837E+03  6.385E-01  1.000E+01  0.000E+00  1.213E+00
   1    5    9     4     2    1.0000E+01  0.0000E+00   1.0000E+01  0.000E+00  0.000E+00  0.000E+00  1.07155E+03  6.385E-01  1.000E+01  0.000E+00  1.213E+00
   1    6    8     4     3    1.0000E+01  0.0000E+00   1.0000E+01  0.000E+00  0.000E+00  0.000E+00  1.06382E+03  6.385E-01  1.000E+01  0.000E+00  1.213E+00
   1    6    8     5     1    1.0832E+01  2.3262E-01   1.0599E+01  0.000E+00  0.000E+00  0.000E+00  1.05869E+03  6.881E-01  1.577E+01  6.307E-02  1.229E+00
   1    7    7     5     2    1.0599E+01  2.8607E-01   1.0313E+01  0.000E+00  0.000E+00  0.000E+00  1.05418E+03  6.822E-01  1.554E+01  7.769E-02  1.227E+00
   1    8    7     5     3    1.0313E+01  1.9716E-01   1.0116E+01  0.000E+00  0.000E+00  0.000E+00  1.04993E+03  6.766E-01  1.532E+01  5.363E-02  1.226E+00
   1    8    6     5     4    1.0116E+01  1.3929E-01   9.9766E+00  0.000E+00  0.000E+00  0.000E+00  1.04692E+03  6.727E-01  1.517E+01  3.792E-02  1.224E+00
   1    9    6     6     1    6.6893E+01  0.0000E+00   6.6893E+01  0.000E+00  0.000E+00  0.000E+00  1.04493E+03  2.204E+00  1.200E+01  0.000E+00  1.735E+00
   1   10    7     6     2    6.6893E+01  0.0000E+00   6.6893E+01  0.000E+00  0.000E+00  0.000E+00  1.04039E+03  2.204E+00  1.200E+01  0.000E+00  1.735E+00
   1   11    7     6     3    6.6893E+01  0.0000E+00   6.6893E+01  0.000E+00  0.000E+00  0.000E+00  1.03584E+03  2.204E+00  1.200E+01  0.000E+00  1.735E+00
   1   12    7     6     4    6.6893E+01  0.0000E+00   6.6893E+01  0.000E+00  0.000E+00  0.000E+00  1.03129E+03  2.204E+00  1.200E+01  0.000E+00  1.735E+00
   1   13    7     6     5    6.6893E+01  0.0000E+00   6.6893E+01  0.000E+00  0.000E+00  0.000E+00  1.02811E+03  2.204E+00  1.200E+01  0.000E+00  4.751E-01
   1   14    9     7     1    1.5000E+02  1.2730E+00   1.4873E+02  0.000E+00  0.000E+00  0.000E+00  1.03987E+03  2.288E+00  5.530E+01  5.593E-01  7.586E-01
   1   13    8     7     2    1.4873E+02  1.8909E+00   1.4684E+02  0.000E+00  0.000E+00  0.000E+00  1.03478E+03  2.279E+00  5.526E+01  6.148E-01  1.025E+00
   1   13    7     7     3    1.4684E+02  1.6762E+00   1.4516E+02  0.000E+00  0.000E+00  0.000E+00  1.02969E+03  2.270E+00  5.521E+01  5.584E-01  1.001E+00
   1   13    6     8     1    2.1205E+02  1.2817E+00   2.1077E+02  0.000E+00  0.000E+00  0.000E+00  1.02508E+03  3.204E+00  4.645E+01  4.734E-01  9.025E-01
   1   13    5     8     2    2.1077E+02  4.2087E-01   2.1035E+02  0.000E+00  0.000E+00  0.000E+00  1.01882E+03  3.199E+00  4.638E+01  4.727E-01  2.968E-01
   1   13    4     8     3    2.1035E+02 -1.8385E+00   2.1219E+02  0.000E+00  0.000E+00  0.000E+00  1.01258E+03  3.203E+00  4.644E+01  4.733E+00 -1.295E-01
   1   13    3     8     4    2.1219E+02 -3.4229E+00   2.1561E+02  0.000E+00  0.000E+00  0.000E+00  1.00634E+03  3.218E+00  4.666E+01  4.755E+00 -2.400E-01
   1   13    2     8     5    2.1561E+02 -2.4049E+00   2.1802E+02  0.000E+00  0.000E+00  0.000E+00  1.00011E+03  3.234E+00  4.690E+01  4.779E+00 -1.678E-01
   1   13    1     8     6    2.1802E+02 -1.8090E+00   2.1983E+02  0.000E+00  0.000E+00  0.000E+00  9.95121E+02  3.246E+00  4.707E+01  2.878E+00 -2.095E-01
   1    6    8     9     1    5.6895E-01  0.0000E+00   5.6895E-01  0.000E+00  0.000E+00  0.000E+00  1.07860E+03  9.651E-02  4.000E+00  0.000E+00  1.032E+00





UNSATURATED ZONE PACKAGE VOLUMETRIC BUDGET FOR  TIME STEP    30 STRESS PERIOD   18
  ------------------------------------------------------------------------------



     CUMULATIVE VOLUMES      L**3       RATES FOR THIS TIME STEP      L**3/T
     ------------------                 ------------------------

           IN:                                      IN:
           ---                                      ---
        INFILTRATION =    59728847.6921          INFILTRATION =           1.4164

          OUT:                                     OUT:
          ----                                     ----
              UZF ET =   587871256.1963                UZF ET =           1.3425
        UZF RECHARGE =  1105642309.9048          UZF RECHARGE =          21.9142

            IN - OUT = -1633784718.4089              IN - OUT =         -21.8403

          STORAGE:                                 STORAGE:
          --------                                 --------
      STORAGE CHANGE = -1633775644.5404        STORAGE CHANGE =         -21.8403

 PERCENT DISCREPANCY IS DIFFERENCE BETWEEN IN-OUT MINUS CHANGE IN STORAGE
 DIVIDED BY THE AVERAGE OF IN AND OUT TIMES 100

 PERCENT DISCREPANCY =          -0.00     PERCENT DISCREPANCY =           0.00






1
  VOLUMETRIC BUDGET FOR ENTIRE MODEL AT END OF TIME STEP   30, STRESS PERIOD  18
  ------------------------------------------------------------------------------

     CUMULATIVE VOLUMES      L**3       RATES FOR THIS TIME STEP      L**3/T
     ------------------                 ------------------------

           IN:                                      IN:
           ---                                      ---
             STORAGE =    33501256.0000               STORAGE =       8.0005E-02
       CONSTANT HEAD =           0.0000         CONSTANT HEAD =           0.0000
               WELLS =           0.0000                 WELLS =           0.0000
     HEAD DEP BOUNDS =    13414193.0000       HEAD DEP BOUNDS =           0.2815
      STREAM LEAKAGE =   477360288.0000        STREAM LEAKAGE =          10.4827
        UZF RECHARGE =  1105641856.0000          UZF RECHARGE =          21.9142
               GW ET =           0.0000                 GW ET =           0.0000
     SURFACE LEAKAGE =           0.0000       SURFACE LEAKAGE =           0.0000

            TOTAL IN =  1629917568.0000              TOTAL IN =          32.7584

          OUT:                                     OUT:
          ----                                     ----
             STORAGE =  1132265856.0000               STORAGE =          21.4346
       CONSTANT HEAD =           0.0000         CONSTANT HEAD =           0.0000
               WELLS =     1016027.8750                 WELLS =           0.0000
     HEAD DEP BOUNDS =    13638995.0000       HEAD DEP BOUNDS =           0.2945
      STREAM LEAKAGE =   405574336.0000        STREAM LEAKAGE =           9.4754
        UZF RECHARGE =           0.0000          UZF RECHARGE =           0.0000
               GW ET =    77305080.0000                 GW ET =           1.5526
     SURFACE LEAKAGE =           0.0000       SURFACE LEAKAGE =           0.0000

           TOTAL OUT =  1629800448.0000             TOTAL OUT =          32.7570

            IN - OUT =      117120.0000              IN - OUT =       1.3313E-03

 PERCENT DISCREPANCY =           0.01     PERCENT DISCREPANCY =           0.00






         TIME SUMMARY AT END OF TIME STEP   30 IN STRESS PERIOD   18
                    SECONDS     MINUTES      HOURS       DAYS        YEARS
                    -----------------------------------------------------------
   TIME STEP LENGTH  87600.      1460.0      24.333      1.0139     2.77588E-03
 STRESS PERIOD TIME 2.62800E+06  43800.      730.00      30.417     8.32763E-02
         TOTAL TIME 4.73040E+07 7.88400E+05  13140.      547.50      1.4990    
1
1
                            STRESS PERIOD NO.   19, LENGTH =   2628000.    
                            -----------------------------------------------

                              NUMBER OF TIME STEPS =    30

                               MULTIPLIER FOR DELT =     1.000

                            INITIAL TIME STEP SIZE =   87600.00    

 WELL NO.  LAYER   ROW   COL   STRESS RATE         
 --------------------------------------------------
      1      1      6      4       0.000    
      2      1      6      7       0.000    
      3      1      7      4       0.000    
      4      1      7      5       0.000    
      5      1      8      4       0.000    
      6      1      8      5       0.000    
      7      1      9      4       0.000    
      8      1      9      5       0.000    
      9      1     10      4       0.000    
     10      1     10      5       0.000    

     10 WELLS

 REUSING NON-PARAMETER GHB CELLS FROM LAST STRESS PERIOD

      2 GHB CELLS

 REUSING STREAM SEGMENT DATA FROM LAST STRESS PERIOD



            AREAL INFILTRATION RATE
 READING ON UNIT   19 WITH FORMAT: (10F4.0)            

            1           2           3           4           5           6           7           8           9          10
 ........................................................................................................................
   1   1.0000E-10  2.0000E-10   0.000       0.000       0.000       0.000       0.000       0.000       0.000       0.000    
   2   2.0000E-10  1.0000E-10  2.0000E-10   0.000       0.000      8.0000E-10  8.0000E-10  5.0000E-10   0.000       0.000    
   3    0.000      5.0000E-10  1.0000E-10  1.0000E-10  8.0000E-10  8.0000E-10  5.0000E-10  5.0000E-10   0.000       0.000    
   4   8.0000E-10  5.0000E-10  1.0000E-10  1.0000E-10  1.0000E-10  1.0000E-10  1.0000E-10  1.0000E-10  2.0000E-10   0.000    
   5   8.0000E-10  5.0000E-10  1.0000E-10  1.0000E-10  1.0000E-10  1.0000E-10  1.0000E-10  1.0000E-10  1.0000E-10  1.0000E-10
   6   8.0000E-10  5.0000E-10  5.0000E-10  2.0000E-10  2.0000E-10  1.0000E-10  1.0000E-10  1.0000E-10  1.0000E-10  5.0000E-10
   7   8.0000E-10  5.0000E-10  5.0000E-10  2.0000E-10  2.0000E-10  1.0000E-10  1.0000E-10  2.0000E-10  2.0000E-10   0.000    
   8    0.000      5.0000E-10  5.0000E-10  2.0000E-10  2.0000E-10  1.0000E-10  1.0000E-10  2.0000E-10  5.0000E-10   0.000    
   9    0.000      5.0000E-10  5.0000E-10  2.0000E-10  2.0000E-10  1.0000E-10  1.0000E-10  2.0000E-10  5.0000E-10   0.000    
  10    0.000      5.0000E-10  5.0000E-10  2.0000E-10  2.0000E-10  1.0000E-10  1.0000E-10  2.0000E-10  5.0000E-10  8.0000E-10
  11    0.000      1.0000E-10  1.0000E-10  1.0000E-10  1.0000E-10  1.0000E-10  1.0000E-10  2.0000E-10  5.0000E-10   0.000    
  12   1.0000E-10  1.0000E-10  1.0000E-10  1.0000E-10  1.0000E-10  1.0000E-10  1.0000E-10  1.0000E-10  2.0000E-10   0.000    
  13   1.0000E-10  1.0000E-10  2.0000E-10  2.0000E-10  2.0000E-10  2.0000E-10  2.0000E-10  1.0000E-10  1.0000E-10   0.000    
  14    0.000      2.0000E-10  5.0000E-10  5.0000E-10  5.0000E-10  5.0000E-10  5.0000E-10  2.0000E-10  1.0000E-10   0.000    
  15    0.000       0.000      8.0000E-10  8.0000E-10  8.0000E-10  8.0000E-10   0.000       0.000       0.000       0.000    

                  ET RATE =  3.000000E-08

 USING ET EXTINCTION DEPTH FROM PREVIOUS STRESS PERIOD. CURRENT PERIOD IS:      19

 USING EXTINCTION WATER CONTENT FROM PREVIOUS STRESS PERIOD. CURRENT PERIOD IS:      19
 
 SOLVING FOR HEAD 
                                                   Max.-Head-Change                         Max.-Flux-Residual
  Residual-Control   Outer-Iter.   Inner-Iter.     Column Row Layer    Maximum-Head-Change  Column Row Layer    Maximum-Flux-Residual          L2-NORM 
          0                 1           2             7    6     1      -0.2784775697E+00       7    6    1        -0.1520006719E+02      0.1546748186E+02
          0                 2           2             7    6     1       0.3048397716E+00       7    6    1         0.1680627988E+02      0.1681037356E+02
          0                 3           2             7    6     1      -0.2007374443E+00       7    6    1        -0.1115252715E+02      0.1115368652E+02
          0                 4           2             7    6     1       0.1883368203E+00       7    6    1         0.1055830018E+02      0.1055857669E+02
          0                 5           2             7    6     1      -0.6940712080E-02       7    6    1        -0.3939007718E+00      0.3983014672E+00
          0                 6           2             7    6     1      -0.1325425953E-02       7    6    1        -0.7515069401E-01      0.7634812553E-01
          0                 7           2             7    6     1      -0.2534125742E-03       7    6    1        -0.1435589715E-01      0.1525024548E-01
          0                 8           1             7    6     1      -0.4850424718E-04       7    6    1        -0.2745598573E-02      0.3562718595E-02
          0                 9           1             7    6     1      -0.9293152332E-05       7    6    1        -0.5256657769E-03      0.1143580003E-02

    ------------------------------------------------
       NWT REQUIRED            9 OUTER ITERATIONS 
       AND A TOTAL OF         16 INNER ITERATIONS.
    ------------------------------------------------

 NO OUTPUT CONTROL FOR STRESS PERIOD   19   TIME STEP    1
 
 SOLVING FOR HEAD 
                                                   Max.-Head-Change                         Max.-Flux-Residual
  Residual-Control   Outer-Iter.   Inner-Iter.     Column Row Layer    Maximum-Head-Change  Column Row Layer    Maximum-Flux-Residual          L2-NORM 
          0                 1           2             7    6     1      -0.1823962943E+00       7    6    1        -0.9959607485E+01      0.1032298201E+02
          0                 2           2             7    6     1       0.2005345194E+00       7    6    1         0.1103718882E+02      0.1104537819E+02
          0                 3           2             7    6     1      -0.1050865590E-01       7    6    1        -0.5854054937E+00      0.6045589413E+00
          0                 4           2             7    6     1      -0.1851383544E-02       7    6    1        -0.1030349336E+00      0.1179723612E+00
          0                 5           2             7    6     1      -0.3266173692E-03       7    6    1        -0.1816127201E-01      0.3112791592E-01
          0                 6           1             8    2     1       0.9677286359E-04       7    6    1        -0.3205382499E-02      0.1174193478E-01
          0                 7           1             8    2     1       0.4349355535E-04       8    2    1         0.1129564237E-02      0.5086217243E-02
          0                 8           1             8    2     1       0.1954770797E-04       8    2    1         0.5076708019E-03      0.2264495205E-02
          0                 9           1             8    2     1       0.8785498301E-05       8    2    1         0.2281671195E-03      0.1012789004E-02

    ------------------------------------------------
       NWT REQUIRED            9 OUTER ITERATIONS 
       AND A TOTAL OF         14 INNER ITERATIONS.
    ------------------------------------------------

 NO OUTPUT CONTROL FOR STRESS PERIOD   19   TIME STEP    2
 
 SOLVING FOR HEAD 
                                                   Max.-Head-Change                         Max.-Flux-Residual
  Residual-Control   Outer-Iter.   Inner-Iter.     Column Row Layer    Maximum-Head-Change  Column Row Layer    Maximum-Flux-Residual          L2-NORM 
          0                 1           2             7    6     1      -0.2889092171E+00       7    6    1        -0.1576905260E+02      0.1598103512E+02
          0                 2           2             7    6     1       0.3162078487E+00       7    6    1         0.1743312978E+02      0.1743813690E+02
          0                 3           2             7    6     1      -0.1805121244E-01       7    6    1        -0.1004911208E+01      0.1018079674E+01
          0                 4           2             7    6     1      -0.3183419620E-02       7    6    1        -0.1770552978E+00      0.1862085520E+00
          0                 5           2             7    6     1      -0.5621517417E-03       7    6    1        -0.3123912696E-01      0.4016927090E-01
          0                 6           1             7    6     1      -0.9938602183E-04       7    6    1        -0.5518709833E-02      0.1256144532E-01
          0                 7           1             8    2     1       0.4347300973E-04       8    2    1         0.1129030916E-02      0.5142757680E-02
          0                 8           1             8    2     1       0.1953846861E-04       8    2    1         0.5074309598E-03      0.2266458198E-02
          0                 9           1             8    2     1       0.8781343207E-05       8    2    1         0.2280592564E-03      0.1012012628E-02

    ------------------------------------------------
       NWT REQUIRED            9 OUTER ITERATIONS 
       AND A TOTAL OF         14 INNER ITERATIONS.
    ------------------------------------------------

 NO OUTPUT CONTROL FOR STRESS PERIOD   19   TIME STEP    3
 
 SOLVING FOR HEAD 
                                                   Max.-Head-Change                         Max.-Flux-Residual
  Residual-Control   Outer-Iter.   Inner-Iter.     Column Row Layer    Maximum-Head-Change  Column Row Layer    Maximum-Flux-Residual          L2-NORM 
          0                 1           2             7    6     1      -0.2889093268E+00       7    6    1        -0.1576906981E+02      0.1596394530E+02
     PET DIFF ERROR     6    7   -0.1777590054E-08    0.2999999804E-07
     PET DIFF ERROR     6    8   -0.1777590057E-08    0.2999999804E-07
          0                 2           2             7    6     1       0.3162075965E+00       7    6    1         0.1743312865E+02      0.1743794385E+02
          0                 3           2             7    6     1      -0.3043934553E+00       7    6    1        -0.1691043631E+02      0.1691122131E+02
     PET DIFF ERROR     6    7   -0.1051110357E-08    0.2999999804E-07
     PET DIFF ERROR     6    8   -0.1051110357E-08    0.2999999804E-07
          0                 4           2             7    6     1       0.2978598591E+00       7    6    1         0.1672553818E+02      0.1672586194E+02
          0                 5           2             7    6     1      -0.2926515268E+00       7    6    1        -0.1655667949E+02      0.1655687164E+02
     PET DIFF ERROR     6    7   -0.1292265309E-08    0.2999999804E-07
     PET DIFF ERROR     6    8   -0.1292265310E-08    0.2999999804E-07
          0                 6           2             7    6     1       0.2870131616E+00       7    6    1         0.1641255929E+02      0.1641278539E+02
          0                 7           2             7    6     1      -0.2817298544E+00       7    6    1        -0.1623125409E+02      0.1623141174E+02
     PET DIFF ERROR     6    7   -0.1140873526E-08    0.2999999804E-07
     PET DIFF ERROR     6    8   -0.1140873528E-08    0.2999999804E-07
          0                 8           2             7    6     1       0.2763928187E+00       7    6    1         0.1609500286E+02      0.1609520849E+02
          0                 9           2             7    6     1      -0.2714913746E+00       7    6    1        -0.1592784654E+02      0.1592799026E+02
     PET DIFF ERROR     6    7   -0.5346201116E-09    0.2999999804E-07
     PET DIFF ERROR     6    8   -0.5346201155E-09    0.2999999804E-07
          0                10           2             7    6     1       0.2664582759E+00       7    6    1         0.1580039688E+02      0.1580058685E+02
                                                   Max.-Head-Change                         Max.-Flux-Residual
  Residual-Control   Outer-Iter.   Inner-Iter.     Column Row Layer    Maximum-Head-Change  Column Row Layer    Maximum-Flux-Residual          L2-NORM 
          0                11           2             7    6     1      -0.2623091462E+00       7    6    1        -0.1567042738E+02      0.1567055913E+02
     PET DIFF ERROR     6    7   -0.4346890568E-09    0.2999999804E-07
     PET DIFF ERROR     6    8   -0.4346890567E-09    0.2999999804E-07
          0                12           2             7    6     1       0.2575494958E+00       7    6    1         0.1555100476E+02      0.1555118130E+02
          0                13           2             7    6     1      -0.2536687291E+00       7    6    1        -0.1543068314E+02      0.1543080459E+02
     PET DIFF ERROR     6    7   -0.4236788435E-09    0.2999999804E-07
     PET DIFF ERROR     6    8   -0.4236788437E-09    0.2999999804E-07
          0                14           2             7    6     1       0.2491459727E+00       7    6    1         0.1531774315E+02      0.1531790741E+02
          0                15           2             7    6     1      -0.2454467831E+00       7    6    1        -0.1520234145E+02      0.1520245365E+02
     PET DIFF ERROR     6    7   -0.4867255245E-09    0.2999999804E-07
     PET DIFF ERROR     6    8   -0.4867255248E-09    0.2999999804E-07
          0                16           2             7    6     1       0.2411440361E+00       7    6    1         0.1509539701E+02      0.1509555004E+02
          0                17           2             7    6     1      -0.2375546476E+00       7    6    1        -0.1498081443E+02      0.1498091825E+02
     PET DIFF ERROR     6    7   -0.5514194618E-09    0.2999999804E-07
     PET DIFF ERROR     6    8   -0.5514194623E-09    0.2999999804E-07
          0                18           2             7    6     1       0.2334608199E+00       7    6    1         0.1487965291E+02      0.1487979559E+02
          0                19           2             7    6     1      -0.2294230991E+00       7    6    1        -0.1473029474E+02      0.1473039115E+02
     PET DIFF ERROR     6    7   -0.5853695486E-09    0.2999999804E-07
     PET DIFF ERROR     6    8   -0.5853695494E-09    0.2999999804E-07
          0                20           2             7    6     1       0.2255684020E+00       7    6    1         0.1463697069E+02      0.1463710323E+02
                                                   Max.-Head-Change                         Max.-Flux-Residual
  Residual-Control   Outer-Iter.   Inner-Iter.     Column Row Layer    Maximum-Head-Change  Column Row Layer    Maximum-Flux-Residual          L2-NORM 
          0                21           2             7    6     1      -0.2213516361E+00       7    6    1        -0.1446913880E+02      0.1446922813E+02
     PET DIFF ERROR     6    7   -0.5646202037E-09    0.2999999804E-07
     PET DIFF ERROR     6    8   -0.5646202049E-09    0.2999999804E-07
          0                22           2             7    6     1       0.2177285435E+00       7    6    1         0.1438353396E+02      0.1438365700E+02
          0                23           2             7    6     1      -0.2137279580E+00       7    6    1        -0.1422295671E+02      0.1422303931E+02
     PET DIFF ERROR     6    7   -0.4194729087E-09    0.2999999804E-07
     PET DIFF ERROR     6    8   -0.4194729106E-09    0.2999999804E-07
          0                24           2             7    6     1       0.2102974180E+00       7    6    1         0.1414309240E+02      0.1414320690E+02
          0                25           2             7    6     1      -0.2065945262E+00       7    6    1        -0.1399583133E+02      0.1399590775E+02
     PET DIFF ERROR     6    7   -0.2710485194E-09    0.2999999804E-07
     PET DIFF ERROR     6    8   -0.2710485193E-09    0.2999999804E-07
          0                26           2             7    6     1       0.2033306814E+00       7    6    1         0.1392054303E+02      0.1392064982E+02
     PET DIFF ERROR     6    7   -0.2915013474E-09    0.2999999804E-07
     PET DIFF ERROR     6    8   -0.2915013473E-09    0.2999999804E-07
          0                27           2             7    6     1       0.2519210799E-01       7    6    1         0.1720779355E+01      0.1721346747E+01
     PET DIFF ERROR     6    7   -0.3045366890E-09    0.2999999804E-07
     PET DIFF ERROR     6    8   -0.3045366889E-09    0.2999999804E-07
          0                28           2             7    6     1       0.4869566754E-02       7    6    1         0.3322873282E+00      0.3330471522E+00
          0                29           2             7    6     1      -0.2228466207E+00       7    6    1        -0.1536690003E+02      0.1536690262E+02
     PET DIFF ERROR     6    7   -0.2976586319E-09    0.2999999804E-07
     PET DIFF ERROR     6    8   -0.2976586319E-09    0.2999999804E-07
          0                30           2             7    6     1       0.1909834006E+00       7    6    1         0.1328845116E+02      0.1328863979E+02
     PET DIFF ERROR     6    7   -0.2750938440E-09    0.2999999804E-07
     PET DIFF ERROR     6    8   -0.2750938442E-09    0.2999999804E-07
                                                   Max.-Head-Change                         Max.-Flux-Residual
  Residual-Control   Outer-Iter.   Inner-Iter.     Column Row Layer    Maximum-Head-Change  Column Row Layer    Maximum-Flux-Residual          L2-NORM 
          0                31           2             7    6     1       0.2630206087E-01       7    6    1         0.1828919941E+01      0.1829343537E+01
          0                32           2             7    6     1       0.5238271693E-02       7    6    1         0.3639029178E+00      0.3645683774E+00
          0                33           2             7    6     1       0.1797494871E-02       7    6    1         0.1248319612E+00      0.1251693942E+00
          0                34           2             7    6     1       0.6169068508E-03       7    6    1         0.4282921891E-01      0.4299226043E-01
          0                35           2             7    6     1       0.2117592606E-03       7    6    1         0.1469695377E-01      0.1477656658E-01
          0                36           1             7    6     1       0.7270007337E-04       7    6    1         0.5044127663E-02      0.5090646153E-02
          0                37           1             7    6     1       0.2496293843E-04       7    6    1         0.1731470755E-02      0.1809834656E-02
          0                38           1             7    6     1       0.8572822384E-05       7    6    1         0.5944473628E-03      0.7270264569E-03

    ------------------------------------------------
       NWT REQUIRED           38 OUTER ITERATIONS 
       AND A TOTAL OF         73 INNER ITERATIONS.
    ------------------------------------------------

 NO OUTPUT CONTROL FOR STRESS PERIOD   19   TIME STEP    4
 
 SOLVING FOR HEAD 
                                                   Max.-Head-Change                         Max.-Flux-Residual
  Residual-Control   Outer-Iter.   Inner-Iter.     Column Row Layer    Maximum-Head-Change  Column Row Layer    Maximum-Flux-Residual          L2-NORM 
          0                 1           2             7    6     1      -0.2772466956E+00       7    6    1        -0.1513297563E+02      0.1532047583E+02
          0                 2           2             7    6     1       0.3034969304E+00       7    6    1         0.1673228606E+02      0.1673675600E+02
          0                 3           2             7    6     1      -0.2807883647E+00       7    6    1        -0.1559916283E+02      0.1559998745E+02
          0                 4           2             7    6     1       0.2737203062E+00       7    6    1         0.1537002672E+02      0.1537033336E+02
          0                 5           2             7    6     1      -0.2683787524E+00       7    6    1        -0.1518344822E+02      0.1518362657E+02
          0                 6           2             7    6     1       0.2631691717E+00       7    6    1         0.1504905675E+02      0.1504925963E+02
          0                 7           2             7    6     1      -0.6826779047E-02       7    6    1        -0.3947732170E+00      0.4001155326E+00
          0                 8           2             7    6     1      -0.1402211044E-02       7    6    1        -0.8101453449E-01      0.8172087318E-01
          0                 9           2             7    6     1      -0.2883101071E-03       7    6    1        -0.1664373964E-01      0.1675296414E-01
          0                10           1             7    6     1      -0.5933707256E-04       7    6    1        -0.3422799324E-02      0.3461185616E-02
                                                   Max.-Head-Change                         Max.-Flux-Residual
  Residual-Control   Outer-Iter.   Inner-Iter.     Column Row Layer    Maximum-Head-Change  Column Row Layer    Maximum-Flux-Residual          L2-NORM 
          0                11           1             7    6     1      -0.1222312155E-04       7    6    1        -0.7045660720E-03      0.7345447718E-03
          0                12           1             7    6     1      -0.2520001624E-05       7    6    1        -0.1451595772E-03      0.1718848375E-03

    ------------------------------------------------
       NWT REQUIRED           12 OUTER ITERATIONS 
       AND A TOTAL OF         21 INNER ITERATIONS.
    ------------------------------------------------

 NO OUTPUT CONTROL FOR STRESS PERIOD   19   TIME STEP    5
 
 SOLVING FOR HEAD 
                                                   Max.-Head-Change                         Max.-Flux-Residual
  Residual-Control   Outer-Iter.   Inner-Iter.     Column Row Layer    Maximum-Head-Change  Column Row Layer    Maximum-Flux-Residual          L2-NORM 
          0                 1           2             7    6     1      -0.2623312577E+00       7    6    1        -0.1431946526E+02      0.1450323029E+02
          0                 2           2             7    6     1       0.2872410372E+00       7    6    1         0.1583596117E+02      0.1584054611E+02
          0                 3           2             7    6     1      -0.2765382714E+00       7    6    1        -0.1536298161E+02      0.1536379093E+02
          0                 4           2             7    6     1       0.2706063129E+00       7    6    1         0.1519518307E+02      0.1519548866E+02
          0                 5           2             7    6     1      -0.1099779090E-01       7    6    1        -0.6237147044E+00      0.6279426634E+00
          0                 6           2             7    6     1      -0.2102160344E-02       7    6    1        -0.1191138219E+00      0.1199712086E+00
          0                 7           2             7    6     1      -0.4022709909E-03       7    6    1        -0.2277502691E-01      0.2334733327E-01
          0                 8           1             7    6     1      -0.7705927773E-04       7    6    1        -0.4359468781E-02      0.4910146307E-02
          0                 9           1             7    6     1      -0.1477566027E-04       7    6    1        -0.8353124892E-03      0.1311159391E-02
          0                10           1             8    2     1       0.3940924926E-05       7    6    1        -0.1601992874E-03      0.4798531551E-03

    ------------------------------------------------
       NWT REQUIRED           10 OUTER ITERATIONS 
       AND A TOTAL OF         17 INNER ITERATIONS.
    ------------------------------------------------

 NO OUTPUT CONTROL FOR STRESS PERIOD   19   TIME STEP    6
 
 SOLVING FOR HEAD 
                                                   Max.-Head-Change                         Max.-Flux-Residual
  Residual-Control   Outer-Iter.   Inner-Iter.     Column Row Layer    Maximum-Head-Change  Column Row Layer    Maximum-Flux-Residual          L2-NORM 
          0                 1           2             7    6     1      -0.2608118255E+00       7    6    1        -0.1423660197E+02      0.1440910753E+02
          0                 2           2             7    6     1       0.2855846658E+00       7    6    1         0.1574464171E+02      0.1574921286E+02
          0                 3           2             7    6     1      -0.2790525693E+00       7    6    1        -0.1550264440E+02      0.1550344255E+02
          0                 4           2             7    6     1       0.2734431304E+00       7    6    1         0.1535449360E+02      0.1535480125E+02
          0                 5           2             7    6     1      -0.2685973386E+00       7    6    1        -0.1519583284E+02      0.1519601033E+02
          0                 6           2             7    6     1       0.2634179179E+00       7    6    1         0.1506330381E+02      0.1506350706E+02
          0                 7           2             7    6     1      -0.6836430816E-02       7    6    1        -0.3953313805E+00      0.4006762246E+00
          0                 8           2             7    6     1      -0.1404193535E-02       7    6    1        -0.8112908378E-01      0.8183543153E-01
          0                 9           2             7    6     1      -0.2887177239E-03       7    6    1        -0.1666727299E-01      0.1677631493E-01
          0                10           1             7    6     1      -0.5942096084E-04       7    6    1        -0.3427638873E-02      0.3465849535E-02
                                                   Max.-Head-Change                         Max.-Flux-Residual
  Residual-Control   Outer-Iter.   Inner-Iter.     Column Row Layer    Maximum-Head-Change  Column Row Layer    Maximum-Flux-Residual          L2-NORM 
          0                11           1             7    6     1      -0.1224040106E-04       7    6    1        -0.7055622216E-03      0.7353806020E-03
          0                12           1             7    6     1      -0.2523563937E-05       7    6    1        -0.1453647978E-03      0.1732769347E-03

    ------------------------------------------------
       NWT REQUIRED           12 OUTER ITERATIONS 
       AND A TOTAL OF         21 INNER ITERATIONS.
    ------------------------------------------------

 NO OUTPUT CONTROL FOR STRESS PERIOD   19   TIME STEP    7
 
 SOLVING FOR HEAD 
                                                   Max.-Head-Change                         Max.-Flux-Residual
  Residual-Control   Outer-Iter.   Inner-Iter.     Column Row Layer    Maximum-Head-Change  Column Row Layer    Maximum-Flux-Residual          L2-NORM 
          0                 1           2             7    6     1      -0.2625738258E+00       7    6    1        -0.1433271563E+02      0.1449356886E+02
          0                 2           2             7    6     1       0.2875045720E+00       7    6    1         0.1585051554E+02      0.1585494986E+02
          0                 3           2             7    6     1      -0.2747018375E+00       7    6    1        -0.1526099743E+02      0.1526180928E+02
          0                 4           2             7    6     1       0.2686177992E+00       7    6    1         0.1508354192E+02      0.1508384561E+02
          0                 5           2             7    6     1      -0.1089249618E-01       7    6    1        -0.6177461952E+00      0.6219546981E+00
          0                 6           2             7    6     1      -0.2082019937E-02       7    6    1        -0.1179731756E+00      0.1188321420E+00
          0                 7           2             7    6     1      -0.3984143390E-03       7    6    1        -0.2255678204E-01      0.2313204629E-01
          0                 8           1             7    6     1      -0.7632001400E-04       7    6    1        -0.4317665686E-02      0.4870924773E-02
          0                 9           1             7    6     1      -0.1463382063E-04       7    6    1        -0.8272976809E-03      0.1304465419E-02
          0                10           1             8    2     1       0.3937133243E-05       7    6    1        -0.1586611816E-03      0.4784705221E-03

    ------------------------------------------------
       NWT REQUIRED           10 OUTER ITERATIONS 
       AND A TOTAL OF         17 INNER ITERATIONS.
    ------------------------------------------------

 NO OUTPUT CONTROL FOR STRESS PERIOD   19   TIME STEP    8
 
 SOLVING FOR HEAD 
                                                   Max.-Head-Change                         Max.-Flux-Residual
  Residual-Control   Outer-Iter.   Inner-Iter.     Column Row Layer    Maximum-Head-Change  Column Row Layer    Maximum-Flux-Residual          L2-NORM 
          0                 1           2             7    6     1      -0.2589239410E+00       7    6    1        -0.1413365250E+02      0.1428748125E+02
          0                 2           2             7    6     1       0.2835263377E+00       7    6    1         0.1563116992E+02      0.1563570745E+02
          0                 3           2             7    6     1      -0.2838539096E+00       7    6    1        -0.1576935577E+02      0.1577013478E+02
     PET DIFF ERROR     6    7   -0.4939042669E-08    0.2999999804E-07
     PET DIFF ERROR     6    8   -0.4939042670E-08    0.2999999804E-07
          0                 4           2             7    6     1       0.2787628920E+00       7    6    1         0.1565324325E+02      0.1565355855E+02
          0                 5           2             7    6     1      -0.2693860538E+00       7    6    1        -0.1524050815E+02      0.1524069155E+02
          0                 6           2             7    6     1       0.2638802553E+00       7    6    1         0.1508976094E+02      0.1508996389E+02
          0                 7           2             7    6     1      -0.6854305657E-02       7    6    1        -0.3963654484E+00      0.4017209391E+00
          0                 8           2             7    6     1      -0.1407863341E-02       7    6    1        -0.8134119446E-01      0.8204857770E-01
          0                 9           2             7    6     1      -0.2894719437E-03       7    6    1        -0.1671082964E-01      0.1681978781E-01
          0                10           1             7    6     1      -0.5957612030E-04       7    6    1        -0.3436592418E-02      0.3474616647E-02
                                                   Max.-Head-Change                         Max.-Flux-Residual
  Residual-Control   Outer-Iter.   Inner-Iter.     Column Row Layer    Maximum-Head-Change  Column Row Layer    Maximum-Flux-Residual          L2-NORM 
          0                11           1             7    6     1      -0.1227234991E-04       7    6    1        -0.7074045036E-03      0.7370418854E-03
          0                12           1             7    6     1      -0.2530148029E-05       7    6    1        -0.1457442042E-03      0.1721867628E-03

    ------------------------------------------------
       NWT REQUIRED           12 OUTER ITERATIONS 
       AND A TOTAL OF         21 INNER ITERATIONS.
    ------------------------------------------------

 NO OUTPUT CONTROL FOR STRESS PERIOD   19   TIME STEP    9
 
 SOLVING FOR HEAD 
                                                   Max.-Head-Change                         Max.-Flux-Residual
  Residual-Control   Outer-Iter.   Inner-Iter.     Column Row Layer    Maximum-Head-Change  Column Row Layer    Maximum-Flux-Residual          L2-NORM 
          0                 1           2             7    6     1      -0.2630999664E+00       7    6    1        -0.1436143281E+02      0.1450501881E+02
          0                 2           2             7    6     1       0.2880771785E+00       7    6    1         0.1588211197E+02      0.1588648292E+02
          0                 3           2             7    6     1      -0.2788614692E+00       7    6    1        -0.1549208142E+02      0.1549287957E+02
          0                 4           2             7    6     1       0.2730187100E+00       7    6    1         0.1533069283E+02      0.1533099923E+02
          0                 5           2             7    6     1      -0.2686465926E+00       7    6    1        -0.1519865083E+02      0.1519882769E+02
          0                 6           2             7    6     1       0.2634989209E+00       7    6    1         0.1506796910E+02      0.1506817247E+02
          0                 7           2             7    6     1      -0.6839721804E-02       7    6    1        -0.3955224058E+00      0.4008679114E+00
          0                 8           2             7    6     1      -0.1404866553E-02       7    6    1        -0.8116811255E-01      0.8187430924E-01
          0                 9           2             7    6     1      -0.2888555099E-03       7    6    1        -0.1667525630E-01      0.1678409587E-01
          0                10           1             7    6     1      -0.5944919854E-04       7    6    1        -0.3429273637E-02      0.3467290361E-02
                                                   Max.-Head-Change                         Max.-Flux-Residual
  Residual-Control   Outer-Iter.   Inner-Iter.     Column Row Layer    Maximum-Head-Change  Column Row Layer    Maximum-Flux-Residual          L2-NORM 
          0                11           1             7    6     1      -0.1224619401E-04       7    6    1        -0.7058973192E-03      0.7355348411E-03
          0                12           1             7    6     1      -0.2524752993E-05       7    6    1        -0.1454335427E-03      0.1718720854E-03

    ------------------------------------------------
       NWT REQUIRED           12 OUTER ITERATIONS 
       AND A TOTAL OF         21 INNER ITERATIONS.
    ------------------------------------------------

 NO OUTPUT CONTROL FOR STRESS PERIOD   19   TIME STEP   10
 
 SOLVING FOR HEAD 
                                                   Max.-Head-Change                         Max.-Flux-Residual
  Residual-Control   Outer-Iter.   Inner-Iter.     Column Row Layer    Maximum-Head-Change  Column Row Layer    Maximum-Flux-Residual          L2-NORM 
          0                 1           2             7    6     1      -0.2626491553E+00       7    6    1        -0.1433685456E+02      0.1447385410E+02
          0                 2           2             7    6     1       0.2875854621E+00       7    6    1         0.1585501067E+02      0.1585932378E+02
          0                 3           2             7    6     1      -0.2741110136E+00       7    6    1        -0.1522821365E+02      0.1522902341E+02
          0                 4           2             7    6     1       0.2679783896E+00       7    6    1         0.1504766922E+02      0.1504797183E+02
          0                 5           2             7    6     1      -0.1085878207E-01       7    6    1        -0.6158362831E+00      0.6200363248E+00
          0                 6           2             7    6     1      -0.2075566293E-02       7    6    1        -0.1176078853E+00      0.1184649372E+00
          0                 7           2             7    6     1      -0.3971776283E-03       7    6    1        -0.2248683656E-01      0.2306054870E-01
          0                 8           1             7    6     1      -0.7608278511E-04       7    6    1        -0.4304258352E-02      0.4855963050E-02
          0                 9           1             7    6     1      -0.1458827309E-04       7    6    1        -0.8247253045E-03      0.1300532756E-02
          0                10           1             8    2     1       0.3931354928E-05       7    6    1        -0.1581671818E-03      0.4770521897E-03

    ------------------------------------------------
       NWT REQUIRED           10 OUTER ITERATIONS 
       AND A TOTAL OF         17 INNER ITERATIONS.
    ------------------------------------------------

 NO OUTPUT CONTROL FOR STRESS PERIOD   19   TIME STEP   11
 
 SOLVING FOR HEAD 
                                                   Max.-Head-Change                         Max.-Flux-Residual
  Residual-Control   Outer-Iter.   Inner-Iter.     Column Row Layer    Maximum-Head-Change  Column Row Layer    Maximum-Flux-Residual          L2-NORM 
          0                 1           2             7    6     1      -0.2583175313E+00       7    6    1        -0.1410060724E+02      0.1423381854E+02
          0                 2           2             7    6     1       0.2828642444E+00       7    6    1         0.1559469687E+02      0.1559912486E+02
          0                 3           2             7    6     1      -0.2850656511E+00       7    6    1        -0.1583669611E+02      0.1583746724E+02
     PET DIFF ERROR     6    7   -0.5783595633E-08    0.2999999804E-07
     PET DIFF ERROR     6    8   -0.5783595634E-08    0.2999999804E-07
          0                 4           2             7    6     1       0.2801180519E+00       7    6    1         0.1572937561E+02      0.1572969364E+02
          0                 5           2             7    6     1      -0.2695848780E+00       7    6    1        -0.1525179899E+02      0.1525198383E+02
          0                 6           2             7    6     1       0.2639958309E+00       7    6    1         0.1509640211E+02      0.1509660495E+02
          0                 7           2             7    6     1      -0.6858921730E-02       7    6    1        -0.3966332699E+00      0.4019914325E+00
          0                 8           2             7    6     1      -0.1408807782E-02       7    6    1        -0.8139593802E-01      0.8210345358E-01
          0                 9           2             7    6     1      -0.2896653919E-03       7    6    1        -0.1672203266E-01      0.1683083279E-01
          0                10           1             7    6     1      -0.5961578608E-04       7    6    1        -0.3438887628E-02      0.3476731160E-02
                                                   Max.-Head-Change                         Max.-Flux-Residual
  Residual-Control   Outer-Iter.   Inner-Iter.     Column Row Layer    Maximum-Head-Change  Column Row Layer    Maximum-Flux-Residual          L2-NORM 
          0                11           1             7    6     1      -0.1228049135E-04       7    6    1        -0.7078752265E-03      0.7373419566E-03
          0                12           1             7    6     1      -0.2531820428E-05       7    6    1        -0.1458408349E-03      0.1721418874E-03

    ------------------------------------------------
       NWT REQUIRED           12 OUTER ITERATIONS 
       AND A TOTAL OF         21 INNER ITERATIONS.
    ------------------------------------------------

 NO OUTPUT CONTROL FOR STRESS PERIOD   19   TIME STEP   12
 
 SOLVING FOR HEAD 
                                                   Max.-Head-Change                         Max.-Flux-Residual
  Residual-Control   Outer-Iter.   Inner-Iter.     Column Row Layer    Maximum-Head-Change  Column Row Layer    Maximum-Flux-Residual          L2-NORM 
          0                 1           2             7    6     1      -0.2632324401E+00       7    6    1        -0.1436868865E+02      0.1449429464E+02
          0                 2           2             7    6     1       0.2882204871E+00       7    6    1         0.1589004888E+02      0.1589433145E+02
          0                 3           2             7    6     1      -0.2799598069E+00       7    6    1        -0.1555312742E+02      0.1555391937E+02
          0                 4           2             7    6     1       0.2741814508E+00       7    6    1         0.1539601898E+02      0.1539632591E+02
          0                 5           2             7    6     1      -0.2689286357E+00       7    6    1        -0.1521464796E+02      0.1521482595E+02
          0                 6           2             7    6     1       0.2637152044E+00       7    6    1         0.1508036943E+02      0.1508057283E+02
          0                 7           2             7    6     1      -0.6848181879E-02       7    6    1        -0.3960122963E+00      0.4013616439E+00
          0                 8           2             7    6     1      -0.1406601519E-02       7    6    1        -0.8126848689E-01      0.8197489947E-01
          0                 9           2             7    6     1      -0.2892116894E-03       7    6    1        -0.1669584517E-01      0.1680451818E-01
          0                10           1             7    6     1      -0.5952239322E-04       7    6    1        -0.3433501285E-02      0.3471327141E-02
                                                   Max.-Head-Change                         Max.-Flux-Residual
  Residual-Control   Outer-Iter.   Inner-Iter.     Column Row Layer    Maximum-Head-Change  Column Row Layer    Maximum-Flux-Residual          L2-NORM 
          0                11           1             7    6     1      -0.1226124936E-04       7    6    1        -0.7067662625E-03      0.7362236735E-03
          0                12           1             7    6     1      -0.2527852922E-05       7    6    1        -0.1456123130E-03      0.1718986308E-03

    ------------------------------------------------
       NWT REQUIRED           12 OUTER ITERATIONS 
       AND A TOTAL OF         21 INNER ITERATIONS.
    ------------------------------------------------

 NO OUTPUT CONTROL FOR STRESS PERIOD   19   TIME STEP   13
 
 SOLVING FOR HEAD 
                                                   Max.-Head-Change                         Max.-Flux-Residual
  Residual-Control   Outer-Iter.   Inner-Iter.     Column Row Layer    Maximum-Head-Change  Column Row Layer    Maximum-Flux-Residual          L2-NORM 
          0                 1           2             7    6     1      -0.2628785506E+00       7    6    1        -0.1434939659E+02      0.1447065280E+02
          0                 2           2             7    6     1       0.2878344011E+00       7    6    1         0.1586877196E+02      0.1587301735E+02
          0                 3           2             7    6     1      -0.2740065442E+00       7    6    1        -0.1522244672E+02      0.1522325394E+02
          0                 4           2             7    6     1       0.2678446259E+00       7    6    1         0.1504019046E+02      0.1504049239E+02
          0                 5           2             7    6     1      -0.1085184846E-01       7    6    1        -0.6154446662E+00      0.6196410549E+00
          0                 6           2             7    6     1      -0.2074233936E-02       7    6    1        -0.1175326880E+00      0.1183871663E+00
          0                 7           2             7    6     1      -0.3969213634E-03       7    6    1        -0.2247238307E-01      0.2304351696E-01
          0                 8           1             7    6     1      -0.7603345278E-04       7    6    1        -0.4301477717E-02      0.4850715029E-02
          0                 9           1             7    6     1      -0.1457876871E-04       7    6    1        -0.8241899136E-03      0.1298113778E-02
          0                10           1             8    2     1       0.3925679158E-05       7    6    1        -0.1580640169E-03      0.4758850924E-03

    ------------------------------------------------
       NWT REQUIRED           10 OUTER ITERATIONS 
       AND A TOTAL OF         17 INNER ITERATIONS.
    ------------------------------------------------

 NO OUTPUT CONTROL FOR STRESS PERIOD   19   TIME STEP   14
 
 SOLVING FOR HEAD 
                                                   Max.-Head-Change                         Max.-Flux-Residual
  Residual-Control   Outer-Iter.   Inner-Iter.     Column Row Layer    Maximum-Head-Change  Column Row Layer    Maximum-Flux-Residual          L2-NORM 
          0                 1           2             7    6     1      -0.2581947231E+00       7    6    1        -0.1409393855E+02      0.1421331818E+02
          0                 2           2             7    6     1       0.2827293324E+00       7    6    1         0.1558729223E+02      0.1559164009E+02
          0                 3           2             7    6     1      -0.2856017731E+00       7    6    1        -0.1586651128E+02      0.1586727754E+02
     PET DIFF ERROR     6    7   -0.6059490318E-08    0.2999999804E-07
     PET DIFF ERROR     6    8   -0.6059490319E-08    0.2999999804E-07
          0                 4           2             7    6     1       0.2807036842E+00       7    6    1         0.1576229572E+02      0.1576261467E+02
          0                 5           2             7    6     1      -0.2697728259E+00       7    6    1        -0.1526246947E+02      0.1526265482E+02
          0                 6           2             7    6     1       0.2641529908E+00       7    6    1         0.1510542189E+02      0.1510562480E+02
          0                 7           2             7    6     1      -0.6865115544E-02       7    6    1        -0.3969921517E+00      0.4023528823E+00
          0                 8           2             7    6     1      -0.1410077070E-02       7    6    1        -0.8146941566E-01      0.8217701512E-01
          0                 9           2             7    6     1      -0.2899257856E-03       7    6    1        -0.1673709359E-01      0.1684572662E-01
          0                10           1             7    6     1      -0.5966925917E-04       7    6    1        -0.3441977980E-02      0.3479642174E-02
                                                   Max.-Head-Change                         Max.-Flux-Residual
  Residual-Control   Outer-Iter.   Inner-Iter.     Column Row Layer    Maximum-Head-Change  Column Row Layer    Maximum-Flux-Residual          L2-NORM 
          0                11           1             7    6     1      -0.1229148273E-04       7    6    1        -0.7085099628E-03      0.7378069882E-03
          0                12           1             7    6     1      -0.2534081671E-05       7    6    1        -0.1459713262E-03      0.1721233575E-03

    ------------------------------------------------
       NWT REQUIRED           12 OUTER ITERATIONS 
       AND A TOTAL OF         21 INNER ITERATIONS.
    ------------------------------------------------

 NO OUTPUT CONTROL FOR STRESS PERIOD   19   TIME STEP   15
 
 SOLVING FOR HEAD 
                                                   Max.-Head-Change                         Max.-Flux-Residual
  Residual-Control   Outer-Iter.   Inner-Iter.     Column Row Layer    Maximum-Head-Change  Column Row Layer    Maximum-Flux-Residual          L2-NORM 
          0                 1           2             7    6     1      -0.2633960950E+00       7    6    1        -0.1437764500E+02      0.1449123218E+02
          0                 2           2             7    6     1       0.2883976570E+00       7    6    1         0.1589985297E+02      0.1590407461E+02
          0                 3           2             7    6     1      -0.2800865878E+00       7    6    1        -0.1556020615E+02      0.1556099490E+02
          0                 4           2             7    6     1       0.2743014916E+00       7    6    1         0.1540279324E+02      0.1540309977E+02
          0                 5           2             7    6     1      -0.2689639084E+00       7    6    1        -0.1521667855E+02      0.1521685657E+02
          0                 6           2             7    6     1       0.2637440015E+00       7    6    1         0.1508204896E+02      0.1508225236E+02
          0                 7           2             7    6     1      -0.6849472950E-02       7    6    1        -0.3960878517E+00      0.4014376886E+00
          0                 8           2             7    6     1      -0.1406862961E-02       7    6    1        -0.8128377136E-01      0.8199008239E-01
          0                 9           2             7    6     1      -0.2892646959E-03       7    6    1        -0.1669894110E-01      0.1680745707E-01
          0                10           1             7    6     1      -0.5953315254E-04       7    6    1        -0.3434129127E-02      0.3471799141E-02
                                                   Max.-Head-Change                         Max.-Flux-Residual
  Residual-Control   Outer-Iter.   Inner-Iter.     Column Row Layer    Maximum-Head-Change  Column Row Layer    Maximum-Flux-Residual          L2-NORM 
          0                11           1             7    6     1      -0.1226343527E-04       7    6    1        -0.7068937127E-03      0.7362055169E-03
          0                12           1             7    6     1      -0.2528297545E-05       7    6    1        -0.1456382222E-03      0.1717992038E-03

    ------------------------------------------------
       NWT REQUIRED           12 OUTER ITERATIONS 
       AND A TOTAL OF         21 INNER ITERATIONS.
    ------------------------------------------------

 NO OUTPUT CONTROL FOR STRESS PERIOD   19   TIME STEP   16
 
 SOLVING FOR HEAD 
                                                   Max.-Head-Change                         Max.-Flux-Residual
  Residual-Control   Outer-Iter.   Inner-Iter.     Column Row Layer    Maximum-Head-Change  Column Row Layer    Maximum-Flux-Residual          L2-NORM 
          0                 1           2             7    6     1      -0.2629094194E+00       7    6    1        -0.1435111055E+02      0.1446182645E+02
          0                 2           2             7    6     1       0.2878668635E+00       7    6    1         0.1587059686E+02      0.1587480566E+02
          0                 3           2             7    6     1      -0.2739559671E+00       7    6    1        -0.1521967187E+02      0.1522047644E+02
          0                 4           2             7    6     1       0.2677876347E+00       7    6    1         0.1503702289E+02      0.1503732425E+02
          0                 5           2             7    6     1      -0.1084901818E-01       7    6    1        -0.6152856608E+00      0.6194791560E+00
          0                 6           2             7    6     1      -0.2073686368E-02       7    6    1        -0.1175019408E+00      0.1183538705E+00
          0                 7           2             7    6     1      -0.3968153623E-03       7    6    1        -0.2246643356E-01      0.2303497622E-01
          0                 8           1             7    6     1      -0.7601292055E-04       7    6    1        -0.4300325775E-02      0.4847093296E-02
          0                 9           1             7    6     1      -0.1457478967E-04       7    6    1        -0.8239667577E-03      0.1296026271E-02
          0                10           1             8    2     1       0.3919956617E-05       7    6    1        -0.1580207672E-03      0.4748076570E-03

    ------------------------------------------------
       NWT REQUIRED           10 OUTER ITERATIONS 
       AND A TOTAL OF         17 INNER ITERATIONS.
    ------------------------------------------------

 NO OUTPUT CONTROL FOR STRESS PERIOD   19   TIME STEP   17
 
 SOLVING FOR HEAD 
                                                   Max.-Head-Change                         Max.-Flux-Residual
  Residual-Control   Outer-Iter.   Inner-Iter.     Column Row Layer    Maximum-Head-Change  Column Row Layer    Maximum-Flux-Residual          L2-NORM 
          0                 1           2             7    6     1      -0.2581418441E+00       7    6    1        -0.1409108404E+02      0.1420103552E+02
          0                 2           2             7    6     1       0.2826705299E+00       7    6    1         0.1558408422E+02      0.1558837606E+02
          0                 3           2             7    6     1      -0.2857500347E+00       7    6    1        -0.1587478230E+02      0.1587554520E+02
     PET DIFF ERROR     6    7   -0.6122592785E-08    0.2999999804E-07
     PET DIFF ERROR     6    8   -0.6122592786E-08    0.2999999804E-07
          0                 4           2             7    6     1       0.2808675322E+00       7    6    1         0.1577153087E+02      0.1577184985E+02
          0                 5           2             7    6     1      -0.2698432110E+00       7    6    1        -0.1526648673E+02      0.1526667214E+02
          0                 6           2             7    6     1       0.2642156671E+00       7    6    1         0.1510903887E+02      0.1510924181E+02
          0                 7           2             7    6     1      -0.6867709327E-02       7    6    1        -0.3971429825E+00      0.4025046920E+00
          0                 8           2             7    6     1      -0.1410606340E-02       7    6    1        -0.8150016317E-01      0.8220770744E-01
          0                 9           2             7    6     1      -0.2900339104E-03       7    6    1        -0.1674336925E-01      0.1685184861E-01
          0                10           1             7    6     1      -0.5969137220E-04       7    6    1        -0.3443260319E-02      0.3480769374E-02
                                                   Max.-Head-Change                         Max.-Flux-Residual
  Residual-Control   Outer-Iter.   Inner-Iter.     Column Row Layer    Maximum-Head-Change  Column Row Layer    Maximum-Flux-Residual          L2-NORM 
          0                11           1             7    6     1      -0.1229600943E-04       7    6    1        -0.7087722490E-03      0.7379233943E-03
          0                12           1             7    6     1      -0.2535009281E-05       7    6    1        -0.1460250262E-03      0.1720531289E-03

    ------------------------------------------------
       NWT REQUIRED           12 OUTER ITERATIONS 
       AND A TOTAL OF         21 INNER ITERATIONS.
    ------------------------------------------------

 NO OUTPUT CONTROL FOR STRESS PERIOD   19   TIME STEP   18
 
 SOLVING FOR HEAD 
                                                   Max.-Head-Change                         Max.-Flux-Residual
  Residual-Control   Outer-Iter.   Inner-Iter.     Column Row Layer    Maximum-Head-Change  Column Row Layer    Maximum-Flux-Residual          L2-NORM 
          0                 1           2             7    6     1      -0.2634609623E+00       7    6    1        -0.1438121322E+02      0.1448657409E+02
          0                 2           2             7    6     1       0.2884671847E+00       7    6    1         0.1590372175E+02      0.1590790539E+02
          0                 3           2             7    6     1      -0.2800600445E+00       7    6    1        -0.1555876734E+02      0.1555955364E+02
          0                 4           2             7    6     1       0.2742669497E+00       7    6    1         0.1540088707E+02      0.1540119310E+02
          0                 5           2             7    6     1      -0.2689636105E+00       7    6    1        -0.1521669588E+02      0.1521687377E+02
          0                 6           2             7    6     1       0.2637460681E+00       7    6    1         0.1508220000E+02      0.1508240338E+02
          0                 7           2             7    6     1      -0.6849738862E-02       7    6    1        -0.3961041603E+00      0.4014540293E+00
          0                 8           2             7    6     1      -0.1406913680E-02       7    6    1        -0.8128688796E-01      0.8199306457E-01
          0                 9           2             7    6     1      -0.2892743447E-03       7    6    1        -0.1669953541E-01      0.1680790570E-01
          0                10           1             7    6     1      -0.5953498250E-04       7    6    1        -0.3434242154E-02      0.3471769992E-02
                                                   Max.-Head-Change                         Max.-Flux-Residual
  Residual-Control   Outer-Iter.   Inner-Iter.     Column Row Layer    Maximum-Head-Change  Column Row Layer    Maximum-Flux-Residual          L2-NORM 
          0                11           1             7    6     1      -0.1226378090E-04       7    6    1        -0.7069151254E-03      0.7360916220E-03
          0                12           1             7    6     1      -0.2528361959E-05       7    6    1        -0.1456422497E-03      0.1716884087E-03

    ------------------------------------------------
       NWT REQUIRED           12 OUTER ITERATIONS 
       AND A TOTAL OF         21 INNER ITERATIONS.
    ------------------------------------------------

 NO OUTPUT CONTROL FOR STRESS PERIOD   19   TIME STEP   19
 
 SOLVING FOR HEAD 
                                                   Max.-Head-Change                         Max.-Flux-Residual
  Residual-Control   Outer-Iter.   Inner-Iter.     Column Row Layer    Maximum-Head-Change  Column Row Layer    Maximum-Flux-Residual          L2-NORM 
          0                 1           2             7    6     1      -0.2629118843E+00       7    6    1        -0.1435127499E+02      0.1445468172E+02
          0                 2           2             7    6     1       0.2878683835E+00       7    6    1         0.1587071566E+02      0.1587490319E+02
          0                 3           2             7    6     1      -0.2739297671E+00       7    6    1        -0.1521825089E+02      0.1521905301E+02
          0                 4           2             7    6     1       0.2677594603E+00       7    6    1         0.1503547352E+02      0.1503577438E+02
          0                 5           2             7    6     1      -0.1084771884E-01       7    6    1        -0.6152134496E+00      0.6194044503E+00
          0                 6           2             7    6     1      -0.2073431569E-02       7    6    1        -0.1174877772E+00      0.1183372368E+00
          0                 7           2             7    6     1      -0.3967654105E-03       7    6    1        -0.2246365637E-01      0.2302965083E-01
          0                 8           1             7    6     1      -0.7600313000E-04       7    6    1        -0.4299781353E-02      0.4844108157E-02
          0                 9           1             7    6     1      -0.1457287136E-04       7    6    1        -0.8238600763E-03      0.1294076234E-02
          0                10           1             8    2     1       0.3914188806E-05       7    6    1        -0.1579998720E-03      0.4737689037E-03

    ------------------------------------------------
       NWT REQUIRED           10 OUTER ITERATIONS 
       AND A TOTAL OF         17 INNER ITERATIONS.
    ------------------------------------------------

 NO OUTPUT CONTROL FOR STRESS PERIOD   19   TIME STEP   20
 
 SOLVING FOR HEAD 
                                                   Max.-Head-Change                         Max.-Flux-Residual
  Residual-Control   Outer-Iter.   Inner-Iter.     Column Row Layer    Maximum-Head-Change  Column Row Layer    Maximum-Flux-Residual          L2-NORM 
          0                 1           2             7    6     1      -0.2581159239E+00       7    6    1        -0.1408969975E+02      0.1419302627E+02
          0                 2           2             7    6     1       0.2826411174E+00       7    6    1         0.1558249677E+02      0.1558674889E+02
          0                 3           2             7    6     1      -0.2857903827E+00       7    6    1        -0.1587705918E+02      0.1587781944E+02
     PET DIFF ERROR     6    7   -0.6139962032E-08    0.2999999804E-07
     PET DIFF ERROR     6    8   -0.6139962033E-08    0.2999999804E-07
          0                 4           2             7    6     1       0.2809133033E+00       7    6    1         0.1577413549E+02      0.1577445428E+02
          0                 5           2             7    6     1      -0.2698629694E+00       7    6    1        -0.1526763928E+02      0.1526782465E+02
          0                 6           2             7    6     1       0.2642332769E+00       7    6    1         0.1511007877E+02      0.1511028170E+02
          0                 7           2             7    6     1      -0.6868575610E-02       7    6    1        -0.3971939932E+00      0.4025560181E+00
          0                 8           2             7    6     1      -0.1410780446E-02       7    6    1        -0.8151040549E-01      0.8221784614E-01
          0                 9           2             7    6     1      -0.2900689425E-03       7    6    1        -0.1674542830E-01      0.1685376565E-01
          0                10           1             7    6     1      -0.5969842873E-04       7    6    1        -0.3443674729E-02      0.3481043040E-02
                                                   Max.-Head-Change                         Max.-Flux-Residual
  Residual-Control   Outer-Iter.   Inner-Iter.     Column Row Layer    Maximum-Head-Change  Column Row Layer    Maximum-Flux-Residual          L2-NORM 
          0                11           1             7    6     1      -0.1229743233E-04       7    6    1        -0.7088557427E-03      0.7378744882E-03
          0                12           1             7    6     1      -0.2535296303E-05       7    6    1        -0.1460418616E-03      0.1719598004E-03

    ------------------------------------------------
       NWT REQUIRED           12 OUTER ITERATIONS 
       AND A TOTAL OF         21 INNER ITERATIONS.
    ------------------------------------------------

 NO OUTPUT CONTROL FOR STRESS PERIOD   19   TIME STEP   21
 
 SOLVING FOR HEAD 
                                                   Max.-Head-Change                         Max.-Flux-Residual
  Residual-Control   Outer-Iter.   Inner-Iter.     Column Row Layer    Maximum-Head-Change  Column Row Layer    Maximum-Flux-Residual          L2-NORM 
          0                 1           2             7    6     1      -0.2634798106E+00       7    6    1        -0.1438227125E+02      0.1448181147E+02
          0                 2           2             7    6     1       0.2884865627E+00       7    6    1         0.1590482532E+02      0.1590898239E+02
          0                 3           2             7    6     1      -0.2800513227E+00       7    6    1        -0.1555831810E+02      0.1555910197E+02
          0                 4           2             7    6     1       0.2742559038E+00       7    6    1         0.1540030032E+02      0.1540060589E+02
          0                 5           2             7    6     1      -0.2689684915E+00       7    6    1        -0.1521700633E+02      0.1521718412E+02
          0                 6           2             7    6     1       0.2637519583E+00       7    6    1         0.1508256967E+02      0.1508277304E+02
          0                 7           2             7    6     1      -0.6850156784E-02       7    6    1        -0.3961292570E+00      0.4014792411E+00
          0                 8           2             7    6     1      -0.1406995632E-02       7    6    1        -0.8129180862E-01      0.8199786203E-01
          0                 9           2             7    6     1      -0.2892904176E-03       7    6    1        -0.1670050047E-01      0.1680872844E-01
          0                10           1             7    6     1      -0.5953813447E-04       7    6    1        -0.3434431430E-02      0.3471819547E-02
                                                   Max.-Head-Change                         Max.-Flux-Residual
  Residual-Control   Outer-Iter.   Inner-Iter.     Column Row Layer    Maximum-Head-Change  Column Row Layer    Maximum-Flux-Residual          L2-NORM 
          0                11           1             7    6     1      -0.1226439887E-04       7    6    1        -0.7069522371E-03      0.7359963820E-03
          0                12           1             7    6     1      -0.2528483209E-05       7    6    1        -0.1456495293E-03      0.1715815581E-03

    ------------------------------------------------
       NWT REQUIRED           12 OUTER ITERATIONS 
       AND A TOTAL OF         21 INNER ITERATIONS.
    ------------------------------------------------

 NO OUTPUT CONTROL FOR STRESS PERIOD   19   TIME STEP   22
 
 SOLVING FOR HEAD 
                                                   Max.-Head-Change                         Max.-Flux-Residual
  Residual-Control   Outer-Iter.   Inner-Iter.     Column Row Layer    Maximum-Head-Change  Column Row Layer    Maximum-Flux-Residual          L2-NORM 
          0                 1           2             7    6     1      -0.2629184272E+00       7    6    1        -0.1435166176E+02      0.1444989048E+02
          0                 2           2             7    6     1       0.2878743494E+00       7    6    1         0.1587107963E+02      0.1587525404E+02
          0                 3           2             7    6     1      -0.2738999776E+00       7    6    1        -0.1521663052E+02      0.1521743040E+02
          0                 4           2             7    6     1       0.2677270522E+00       7    6    1         0.1503368639E+02      0.1503398677E+02
          0                 5           2             7    6     1      -0.1084620051E-01       7    6    1        -0.6151288251E+00      0.6193174159E+00
          0                 6           2             7    6     1      -0.2073134881E-02       7    6    1        -0.1174712411E+00      0.1183183600E+00
          0                 7           2             7    6     1      -0.3967074378E-03       7    6    1        -0.2246042526E-01      0.2302400708E-01
          0                 8           1             7    6     1      -0.7599180206E-04       7    6    1        -0.4299149987E-02      0.4841163537E-02
          0                 9           1             7    6     1      -0.1457065811E-04       7    6    1        -0.8237367138E-03      0.1292201761E-02
          0                10           1             8    2     1       0.3908525792E-05       7    6    1        -0.1579757650E-03      0.4727747501E-03

    ------------------------------------------------
       NWT REQUIRED           10 OUTER ITERATIONS 
       AND A TOTAL OF         17 INNER ITERATIONS.
    ------------------------------------------------

 NO OUTPUT CONTROL FOR STRESS PERIOD   19   TIME STEP   23
 
 SOLVING FOR HEAD 
                                                   Max.-Head-Change                         Max.-Flux-Residual
  Residual-Control   Outer-Iter.   Inner-Iter.     Column Row Layer    Maximum-Head-Change  Column Row Layer    Maximum-Flux-Residual          L2-NORM 
          0                 1           2             7    6     1      -0.2580860441E+00       7    6    1        -0.1408809921E+02      0.1418673684E+02
          0                 2           2             7    6     1       0.2826073845E+00       7    6    1         0.1558067113E+02      0.1558489540E+02
          0                 3           2             7    6     1      -0.2858464796E+00       7    6    1        -0.1588021084E+02      0.1588096859E+02
     PET DIFF ERROR     6    7   -0.6162711756E-08    0.2999999804E-07
     PET DIFF ERROR     6    8   -0.6162711758E-08    0.2999999804E-07
          0                 4           2             7    6     1       0.2809763087E+00       7    6    1         0.1577770791E+02      0.1577802654E+02
          0                 5           2             7    6     1      -0.2698918242E+00       7    6    1        -0.1526930653E+02      0.1526949188E+02
          0                 6           2             7    6     1       0.2642592584E+00       7    6    1         0.1511159739E+02      0.1511180033E+02
          0                 7           2             7    6     1      -0.6869769946E-02       7    6    1        -0.3972639618E+00      0.4026264382E+00
          0                 8           2             7    6     1      -0.1411021988E-02       7    6    1        -0.8152454162E-01      0.8223189563E-01
          0                 9           2             7    6     1      -0.2901178517E-03       7    6    1        -0.1674828796E-01      0.1685648866E-01
          0                10           1             7    6     1      -0.5970834322E-04       7    6    1        -0.3444253921E-02      0.3481485779E-02
                                                   Max.-Head-Change                         Max.-Flux-Residual
  Residual-Control   Outer-Iter.   Inner-Iter.     Column Row Layer    Maximum-Head-Change  Column Row Layer    Maximum-Flux-Residual          L2-NORM 
          0                11           1             7    6     1      -0.1229944466E-04       7    6    1        -0.7089731930E-03      0.7378617750E-03
          0                12           1             7    6     1      -0.2535705167E-05       7    6    1        -0.1460656993E-03      0.1718675862E-03

    ------------------------------------------------
       NWT REQUIRED           12 OUTER ITERATIONS 
       AND A TOTAL OF         21 INNER ITERATIONS.
    ------------------------------------------------

 NO OUTPUT CONTROL FOR STRESS PERIOD   19   TIME STEP   24
 
 SOLVING FOR HEAD 
                                                   Max.-Head-Change                         Max.-Flux-Residual
  Residual-Control   Outer-Iter.   Inner-Iter.     Column Row Layer    Maximum-Head-Change  Column Row Layer    Maximum-Flux-Residual          L2-NORM 
          0                 1           2             7    6     1      -0.2635071493E+00       7    6    1        -0.1438379236E+02      0.1447916334E+02
          0                 2           2             7    6     1       0.2885151891E+00       7    6    1         0.1590643885E+02      0.1591057767E+02
          0                 3           2             7    6     1      -0.2800342048E+00       7    6    1        -0.1555740254E+02      0.1555818423E+02
          0                 4           2             7    6     1       0.2742350568E+00       7    6    1         0.1539916319E+02      0.1539946831E+02
          0                 5           2             7    6     1      -0.2689712242E+00       7    6    1        -0.1521719518E+02      0.1521737286E+02
          0                 6           2             7    6     1       0.2637562660E+00       7    6    1         0.1508284885E+02      0.1508305221E+02
          0                 7           2             7    6     1      -0.6850520147E-02       7    6    1        -0.3961512020E+00      0.4015012876E+00
          0                 8           2             7    6     1      -0.1407066363E-02       7    6    1        -0.8129608159E-01      0.8200201793E-01
          0                 9           2             7    6     1      -0.2893041800E-03       7    6    1        -0.1670133230E-01      0.1680942626E-01
          0                10           1             7    6     1      -0.5954081057E-04       7    6    1        -0.3434593307E-02      0.3471850159E-02
                                                   Max.-Head-Change                         Max.-Flux-Residual
  Residual-Control   Outer-Iter.   Inner-Iter.     Column Row Layer    Maximum-Head-Change  Column Row Layer    Maximum-Flux-Residual          L2-NORM 
          0                11           1             7    6     1      -0.1226491903E-04       7    6    1        -0.7069837322E-03      0.7359036205E-03
          0                12           1             7    6     1      -0.2528584567E-05       7    6    1        -0.1456556524E-03      0.1714805513E-03

    ------------------------------------------------
       NWT REQUIRED           12 OUTER ITERATIONS 
       AND A TOTAL OF         21 INNER ITERATIONS.
    ------------------------------------------------

 NO OUTPUT CONTROL FOR STRESS PERIOD   19   TIME STEP   25
 
 SOLVING FOR HEAD 
                                                   Max.-Head-Change                         Max.-Flux-Residual
  Residual-Control   Outer-Iter.   Inner-Iter.     Column Row Layer    Maximum-Head-Change  Column Row Layer    Maximum-Flux-Residual          L2-NORM 
          0                 1           2             7    6     1      -0.2629232867E+00       7    6    1        -0.1435195655E+02      0.1444641283E+02
          0                 2           2             7    6     1       0.2878784727E+00       7    6    1         0.1587134201E+02      0.1587550738E+02
          0                 3           2             7    6     1      -0.2738713580E+00       7    6    1        -0.1521507512E+02      0.1521587287E+02
          0                 4           2             7    6     1       0.2676960585E+00       7    6    1         0.1503197868E+02      0.1503227859E+02
          0                 5           2             7    6     1      -0.1084476405E-01       7    6    1        -0.6150488437E+00      0.6192351443E+00
          0                 6           2             7    6     1      -0.2072853847E-02       7    6    1        -0.1174555920E+00      0.1183004824E+00
          0                 7           2             7    6     1      -0.3966524610E-03       7    6    1        -0.2245736374E-01      0.2301865295E-01
          0                 8           1             7    6     1      -0.7598104845E-04       7    6    1        -0.4298551087E-02      0.4838369194E-02
          0                 9           1             7    6     1      -0.1456855471E-04       7    6    1        -0.8236195642E-03      0.1290423363E-02
          0                10           1             8    2     1       0.3902816507E-05       7    6    1        -0.1579528562E-03      0.4718319394E-03

    ------------------------------------------------
       NWT REQUIRED           10 OUTER ITERATIONS 
       AND A TOTAL OF         17 INNER ITERATIONS.
    ------------------------------------------------

 NO OUTPUT CONTROL FOR STRESS PERIOD   19   TIME STEP   26
 
 SOLVING FOR HEAD 
                                                   Max.-Head-Change                         Max.-Flux-Residual
  Residual-Control   Outer-Iter.   Inner-Iter.     Column Row Layer    Maximum-Head-Change  Column Row Layer    Maximum-Flux-Residual          L2-NORM 
          0                 1           2             7    6     1      -0.2580574900E+00       7    6    1        -0.1408657088E+02      0.1418174155E+02
          0                 2           2             7    6     1       0.2825750868E+00       7    6    1         0.1557892464E+02      0.1558312583E+02
          0                 3           2             7    6     1      -0.2858966547E+00       7    6    1        -0.1588303358E+02      0.1588378883E+02
     PET DIFF ERROR     6    7   -0.6182606969E-08    0.2999999804E-07
     PET DIFF ERROR     6    8   -0.6182606971E-08    0.2999999804E-07
          0                 4           2             7    6     1       0.2810328504E+00       7    6    1         0.1578091737E+02      0.1578123579E+02
          0                 5           2             7    6     1      -0.2699183879E+00       7    6    1        -0.1527084412E+02      0.1527102945E+02
          0                 6           2             7    6     1       0.2642832775E+00       7    6    1         0.1511300380E+02      0.1511320673E+02
          0                 7           2             7    6     1      -0.6870895703E-02       7    6    1        -0.3973299690E+00      0.4026928746E+00
          0                 8           2             7    6     1      -0.1411249426E-02       7    6    1        -0.8153786363E-01      0.8224513259E-01
          0                 9           2             7    6     1      -0.2901638568E-03       7    6    1        -0.1675098015E-01      0.1685904882E-01
          0                10           1             7    6     1      -0.5971765976E-04       7    6    1        -0.3444798635E-02      0.3481899404E-02
                                                   Max.-Head-Change                         Max.-Flux-Residual
  Residual-Control   Outer-Iter.   Inner-Iter.     Column Row Layer    Maximum-Head-Change  Column Row Layer    Maximum-Flux-Residual          L2-NORM 
          0                11           1             7    6     1      -0.1230133314E-04       7    6    1        -0.7090835204E-03      0.7378486079E-03
          0                12           1             7    6     1      -0.2536088454E-05       7    6    1        -0.1460880751E-03      0.1717889965E-03

    ------------------------------------------------
       NWT REQUIRED           12 OUTER ITERATIONS 
       AND A TOTAL OF         21 INNER ITERATIONS.
    ------------------------------------------------

 NO OUTPUT CONTROL FOR STRESS PERIOD   19   TIME STEP   27
 
 SOLVING FOR HEAD 
                                                   Max.-Head-Change                         Max.-Flux-Residual
  Residual-Control   Outer-Iter.   Inner-Iter.     Column Row Layer    Maximum-Head-Change  Column Row Layer    Maximum-Flux-Residual          L2-NORM 
          0                 1           2             7    6     1      -0.2635324782E+00       7    6    1        -0.1438520360E+02      0.1447746791E+02
          0                 2           2             7    6     1       0.2885416099E+00       7    6    1         0.1590793082E+02      0.1591205418E+02
          0                 3           2             7    6     1      -0.2800164991E+00       7    6    1        -0.1555645429E+02      0.1555723384E+02
          0                 4           2             7    6     1       0.2742137752E+00       7    6    1         0.1539800163E+02      0.1539830631E+02
          0                 5           2             7    6     1      -0.2689737731E+00       7    6    1        -0.1521737363E+02      0.1521755121E+02
          0                 6           2             7    6     1       0.2637604106E+00       7    6    1         0.1508311869E+02      0.1508332205E+02
          0                 7           2             7    6     1      -0.6850884881E-02       7    6    1        -0.3961732273E+00      0.4015234202E+00
          0                 8           2             7    6     1      -0.1407137371E-02       7    6    1        -0.8130037077E-01      0.8200619476E-01
          0                 9           2             7    6     1      -0.2893179992E-03       7    6    1        -0.1670216741E-01      0.1681013209E-01
          0                10           1             7    6     1      -0.5954349815E-04       7    6    1        -0.3434755825E-02      0.3471886103E-02
                                                   Max.-Head-Change                         Max.-Flux-Residual
  Residual-Control   Outer-Iter.   Inner-Iter.     Column Row Layer    Maximum-Head-Change  Column Row Layer    Maximum-Flux-Residual          L2-NORM 
          0                11           1             7    6     1      -0.1226544097E-04       7    6    1        -0.7070153256E-03      0.7358154607E-03
          0                12           1             7    6     1      -0.2528685924E-05       7    6    1        -0.1456617981E-03      0.1713838924E-03

    ------------------------------------------------
       NWT REQUIRED           12 OUTER ITERATIONS 
       AND A TOTAL OF         21 INNER ITERATIONS.
    ------------------------------------------------

 NO OUTPUT CONTROL FOR STRESS PERIOD   19   TIME STEP   28
 
 SOLVING FOR HEAD 
                                                   Max.-Head-Change                         Max.-Flux-Residual
  Residual-Control   Outer-Iter.   Inner-Iter.     Column Row Layer    Maximum-Head-Change  Column Row Layer    Maximum-Flux-Residual          L2-NORM 
          0                 1           2             7    6     1      -0.2629278720E+00       7    6    1        -0.1435223633E+02      0.1444379651E+02
          0                 2           2             7    6     1       0.2878823995E+00       7    6    1         0.1587159357E+02      0.1587574940E+02
          0                 3           2             7    6     1      -0.2738429287E+00       7    6    1        -0.1521353025E+02      0.1521432591E+02
          0                 4           2             7    6     1       0.2676652856E+00       7    6    1         0.1503028335E+02      0.1503058282E+02
          0                 5           2             7    6     1      -0.1084331961E-01       7    6    1        -0.6149684134E+00      0.6191525300E+00
          0                 6           2             7    6     1      -0.2072571269E-02       7    6    1        -0.1174398560E+00      0.1182826079E+00
          0                 7           2             7    6     1      -0.3965971861E-03       7    6    1        -0.2245428545E-01      0.2301336556E-01
          0                 8           1             7    6     1      -0.7597023719E-04       7    6    1        -0.4297948962E-02      0.4835644712E-02
          0                 9           1             7    6     1      -0.1456644045E-04       7    6    1        -0.8235018045E-03      0.1288694536E-02
          0                10           1             8    2     1       0.3897137236E-05       7    6    1        -0.1579298289E-03      0.4709146325E-03

    ------------------------------------------------
       NWT REQUIRED           10 OUTER ITERATIONS 
       AND A TOTAL OF         17 INNER ITERATIONS.
    ------------------------------------------------

 NO OUTPUT CONTROL FOR STRESS PERIOD   19   TIME STEP   29
 
 SOLVING FOR HEAD 
                                                   Max.-Head-Change                         Max.-Flux-Residual
  Residual-Control   Outer-Iter.   Inner-Iter.     Column Row Layer    Maximum-Head-Change  Column Row Layer    Maximum-Flux-Residual          L2-NORM 
          0                 1           2             7    6     1      -0.2580290745E+00       7    6    1        -0.1408504988E+02      0.1418074247E+02
     PET DIFF ERROR     6    7   -0.1194238106E-07    0.2999999804E-07
     PET DIFF ERROR     6    8   -0.1194238109E-07    0.2999999804E-07
          0                 2           2             7    6     1       0.2825430310E+00       7    6    1         0.1557719150E+02      0.1558130288E+02
          0                 3           2             7    6     1      -0.2859461762E+00       7    6    1        -0.1588582000E+02      0.1588657082E+02
     PET DIFF ERROR     6    7   -0.6201632401E-08    0.2999999804E-07
     PET DIFF ERROR     6    8   -0.6201632402E-08    0.2999999804E-07
          0                 4           2             7    6     1       0.2810886710E+00       7    6    1         0.1578408633E+02      0.1578440421E+02
          0                 5           2             7    6     1      -0.2699454185E+00       7    6    1        -0.1527240813E+02      0.1527259343E+02
          0                 6           2             7    6     1       0.2643078370E+00       7    6    1         0.1511444110E+02      0.1511464404E+02
          0                 7           2             7    6     1      -0.6872025096E-02       7    6    1        -0.3973961911E+00      0.4027595524E+00
          0                 8           2             7    6     1      -0.1411477590E-02       7    6    1        -0.8155122854E-01      0.8225841439E-01
          0                 9           2             7    6     1      -0.2902100074E-03       7    6    1        -0.1675368090E-01      0.1686161534E-01
          0                10           1             7    6     1      -0.5972700531E-04       7    6    1        -0.3445345049E-02      0.3482311532E-02
                                                   Max.-Head-Change                         Max.-Flux-Residual
  Residual-Control   Outer-Iter.   Inner-Iter.     Column Row Layer    Maximum-Head-Change  Column Row Layer    Maximum-Flux-Residual          L2-NORM 
          0                11           1             7    6     1      -0.1230322753E-04       7    6    1        -0.7091941918E-03      0.7378318180E-03
          0                12           1             7    6     1      -0.2536473044E-05       7    6    1        -0.1461105189E-03      0.1716968410E-03

    ------------------------------------------------
       NWT REQUIRED           12 OUTER ITERATIONS 
       AND A TOTAL OF         21 INNER ITERATIONS.
    ------------------------------------------------

 NO OUTPUT CONTROL FOR STRESS PERIOD   19   TIME STEP   30



 STREAM LISTING     PERIOD     19   STEP       30

 LAYER ROW COL. STREAM  RCH.  FLOW INTO     FLOW TO   FLOW OUT OF   OVRLND.     DIRECT     STREAM       STREAM     STREAM     STREAM   STREAMBED  STREAMBED
                SEG.NO.  NO.  STRM. RCH.    AQUIFER    STRM. RCH.    RUNOFF     PRECIP       ET          HEAD       DEPTH      WIDTH   CONDCTNC.   GRADIENT

   1    1    1     1     1    2.2886E+01  2.3519E-01   2.2651E+01  0.000E+00  0.000E+00  0.000E+00  1.09419E+03  1.146E+00  1.261E+01  5.673E-02  1.382E+00
   1    2    2     1     2    2.2651E+01  3.6359E-01   2.2287E+01  0.000E+00  0.000E+00  0.000E+00  1.08920E+03  1.141E+00  1.254E+01  8.780E-02  1.380E+00
   1    3    3     1     3    2.2287E+01  3.0946E-01   2.1978E+01  0.000E+00  0.000E+00  0.000E+00  1.08355E+03  1.136E+00  1.247E+01  7.483E-02  1.379E+00
   1    3    4     1     4    2.1978E+01  2.8445E-01   2.1693E+01  0.000E+00  0.000E+00  0.000E+00  1.07854E+03  1.131E+00  1.241E+01  6.886E-02  1.377E+00
   1    4    5     2     1    1.9693E+01  0.0000E+00   1.9693E+01  0.000E+00  0.000E+00  0.000E+00  1.07298E+03  1.046E+00  1.200E+01  0.000E+00  1.349E+00
   1    5    6     2     2    1.9693E+01  0.0000E+00   1.9693E+01  0.000E+00  0.000E+00  0.000E+00  1.06756E+03  1.046E+00  1.200E+01  0.000E+00  1.349E+00
   1    6    6     2     3    1.9693E+01  0.0000E+00   1.9693E+01  0.000E+00  0.000E+00  0.000E+00  1.06284E+03  1.046E+00  1.200E+01  0.000E+00  1.349E+00
   1    7    6     2     4    1.9693E+01  0.0000E+00   1.9693E+01  0.000E+00  0.000E+00  0.000E+00  1.05812E+03  1.046E+00  1.200E+01  0.000E+00  1.349E+00
   1    8    6     2     5    1.9693E+01  0.0000E+00   1.9693E+01  0.000E+00  0.000E+00  0.000E+00  1.05341E+03  1.046E+00  1.200E+01  0.000E+00  1.349E+00
   1    3    5     3     1    2.0000E+00  2.8252E-01   1.7175E+00  0.000E+00  0.000E+00  0.000E+00  1.07555E+03  1.909E+00  9.636E+00  7.227E-02  1.955E+00
   1    3    6     3     2    1.7175E+00  2.4905E-01   1.4684E+00  0.000E+00  0.000E+00  0.000E+00  1.07264E+03  1.727E+00  8.909E+00  6.682E-02  1.864E+00
   1    3    7     3     3    1.4684E+00  1.9718E-01   1.2712E+00  0.000E+00  0.000E+00  0.000E+00  1.06987E+03  1.555E+00  8.218E+00  5.547E-02  1.777E+00
   1    4    8     3     4    1.2712E+00  2.2567E-01   1.0456E+00  0.000E+00  0.000E+00  0.000E+00  1.06682E+03  1.364E+00  7.455E+00  6.709E-02  1.682E+00
   1    5    8     3     5    1.0456E+00  1.5790E-01   8.8768E-01  0.000E+00  0.000E+00  0.000E+00  1.06362E+03  1.164E+00  6.655E+00  4.991E-02  1.582E+00
   1    6    8     3     6    8.8768E-01  5.5980E-02   8.3170E-01  0.000E+00  0.000E+00  0.000E+00  1.06158E+03  1.036E+00  6.145E+00  1.844E-02  1.518E+00
   1    5   10     4     1    1.0000E+01  0.0000E+00   1.0000E+01  0.000E+00  0.000E+00  0.000E+00  1.07837E+03  6.385E-01  1.000E+01  0.000E+00  1.213E+00
   1    5    9     4     2    1.0000E+01  0.0000E+00   1.0000E+01  0.000E+00  0.000E+00  0.000E+00  1.07155E+03  6.385E-01  1.000E+01  0.000E+00  1.213E+00
   1    6    8     4     3    1.0000E+01  0.0000E+00   1.0000E+01  0.000E+00  0.000E+00  0.000E+00  1.06382E+03  6.385E-01  1.000E+01  0.000E+00  1.213E+00
   1    6    8     5     1    1.0832E+01  2.3262E-01   1.0599E+01  0.000E+00  0.000E+00  0.000E+00  1.05869E+03  6.881E-01  1.577E+01  6.307E-02  1.229E+00
   1    7    7     5     2    1.0599E+01  2.8607E-01   1.0313E+01  0.000E+00  0.000E+00  0.000E+00  1.05418E+03  6.822E-01  1.554E+01  7.769E-02  1.227E+00
   1    8    7     5     3    1.0313E+01  1.9716E-01   1.0116E+01  0.000E+00  0.000E+00  0.000E+00  1.04993E+03  6.766E-01  1.532E+01  5.363E-02  1.226E+00
   1    8    6     5     4    1.0116E+01  1.3929E-01   9.9766E+00  0.000E+00  0.000E+00  0.000E+00  1.04692E+03  6.727E-01  1.517E+01  3.792E-02  1.224E+00
   1    9    6     6     1    2.8287E+01  0.0000E+00   2.8287E+01  0.000E+00  0.000E+00  0.000E+00  1.04404E+03  1.315E+00  1.200E+01  0.000E+00  1.438E+00
   1   10    7     6     2    2.8287E+01  0.0000E+00   2.8287E+01  0.000E+00  0.000E+00  0.000E+00  1.03950E+03  1.315E+00  1.200E+01  0.000E+00  1.438E+00
   1   11    7     6     3    2.8287E+01  0.0000E+00   2.8287E+01  0.000E+00  0.000E+00  0.000E+00  1.03495E+03  1.315E+00  1.200E+01  0.000E+00  1.438E+00
   1   12    7     6     4    2.8287E+01  0.0000E+00   2.8287E+01  0.000E+00  0.000E+00  0.000E+00  1.03041E+03  1.315E+00  1.200E+01  0.000E+00  1.438E+00
   1   13    7     6     5    2.8287E+01  0.0000E+00   2.8287E+01  0.000E+00  0.000E+00  0.000E+00  1.02722E+03  1.315E+00  1.200E+01  0.000E+00  1.955E-01
   1   14    9     7     1    1.5000E+02  1.2750E+00   1.4873E+02  0.000E+00  0.000E+00  0.000E+00  1.03987E+03  2.288E+00  5.530E+01  5.593E-01  7.599E-01
   1   13    8     7     2    1.4873E+02  1.8935E+00   1.4683E+02  0.000E+00  0.000E+00  0.000E+00  1.03478E+03  2.279E+00  5.526E+01  6.148E-01  1.027E+00
   1   13    7     7     3    1.4683E+02  1.7041E+00   1.4513E+02  0.000E+00  0.000E+00  0.000E+00  1.02969E+03  2.270E+00  5.521E+01  5.584E-01  1.017E+00
   1   13    6     8     1    1.7341E+02  1.1884E+00   1.7223E+02  0.000E+00  0.000E+00  0.000E+00  1.02485E+03  2.970E+00  4.307E+01  4.389E-01  9.025E-01
   1   13    5     8     2    1.7223E+02  3.8907E-01   1.7184E+02  0.000E+00  0.000E+00  0.000E+00  1.01859E+03  2.965E+00  4.300E+01  4.382E-01  2.960E-01
   1   13    4     8     3    1.7184E+02 -1.7367E+00   1.7357E+02  0.000E+00  0.000E+00  0.000E+00  1.01234E+03  2.970E+00  4.306E+01  4.388E+00 -1.319E-01
   1   13    3     8     4    1.7357E+02 -3.2412E+00   1.7681E+02  0.000E+00  0.000E+00  0.000E+00  1.00611E+03  2.986E+00  4.329E+01  4.412E+00 -2.449E-01
   1   13    2     8     5    1.7681E+02 -2.1769E+00   1.7899E+02  0.000E+00  0.000E+00  0.000E+00  9.99878E+02  3.003E+00  4.354E+01  4.437E+00 -1.635E-01
   1   13    1     8     6    1.7899E+02 -1.6188E+00   1.8061E+02  0.000E+00  0.000E+00  0.000E+00  9.94890E+02  3.015E+00  4.372E+01  2.673E+00 -2.019E-01
   1    6    8     9     1    1.3829E+00  0.0000E+00   1.3829E+00  0.000E+00  0.000E+00  0.000E+00  1.07866E+03  1.644E-01  4.000E+00  0.000E+00  1.055E+00





UNSATURATED ZONE PACKAGE VOLUMETRIC BUDGET FOR  TIME STEP    30 STRESS PERIOD   19
  ------------------------------------------------------------------------------



     CUMULATIVE VOLUMES      L**3       RATES FOR THIS TIME STEP      L**3/T
     ------------------                 ------------------------

           IN:                                      IN:
           ---                                      ---
        INFILTRATION =    65926020.4324          INFILTRATION =           2.2304

          OUT:                                     OUT:
          ----                                     ----
              UZF ET =   594026220.9072                UZF ET =           2.3425
        UZF RECHARGE =  1161681972.1171          UZF RECHARGE =          21.0137

            IN - OUT = -1689782172.5918              IN - OUT =         -21.1257

          STORAGE:                                 STORAGE:
          --------                                 --------
      STORAGE CHANGE = -1689772998.6394        STORAGE CHANGE =         -21.1257

 PERCENT DISCREPANCY IS DIFFERENCE BETWEEN IN-OUT MINUS CHANGE IN STORAGE
 DIVIDED BY THE AVERAGE OF IN AND OUT TIMES 100

 PERCENT DISCREPANCY =          -0.00     PERCENT DISCREPANCY =           0.00






1
  VOLUMETRIC BUDGET FOR ENTIRE MODEL AT END OF TIME STEP   30, STRESS PERIOD  19
  ------------------------------------------------------------------------------

     CUMULATIVE VOLUMES      L**3       RATES FOR THIS TIME STEP      L**3/T
     ------------------                 ------------------------

           IN:                                      IN:
           ---                                      ---
             STORAGE =    41665076.0000               STORAGE =           2.1584
       CONSTANT HEAD =           0.0000         CONSTANT HEAD =           0.0000
               WELLS =           0.0000                 WELLS =           0.0000
     HEAD DEP BOUNDS =    14154108.0000       HEAD DEP BOUNDS =           0.2816
      STREAM LEAKAGE =   502916832.0000        STREAM LEAKAGE =           9.6662
        UZF RECHARGE =  1161681408.0000          UZF RECHARGE =          21.0137
               GW ET =           0.0000                 GW ET =           0.0000
     SURFACE LEAKAGE =           0.0000       SURFACE LEAKAGE =           0.0000

            TOTAL IN =  1720417408.0000              TOTAL IN =          33.1199

          OUT:                                     OUT:
          ----                                     ----
             STORAGE =  1184682368.0000               STORAGE =          19.4480
       CONSTANT HEAD =           0.0000         CONSTANT HEAD =           0.0000
               WELLS =     1016027.8750                 WELLS =           0.0000
     HEAD DEP BOUNDS =    14397038.0000       HEAD DEP BOUNDS =           0.2848
      STREAM LEAKAGE =   430672192.0000        STREAM LEAKAGE =           8.7737
        UZF RECHARGE =           0.0000          UZF RECHARGE =           0.0000
               GW ET =    89530288.0000                 GW ET =           4.6132
     SURFACE LEAKAGE =           0.0000       SURFACE LEAKAGE =           0.0000

           TOTAL OUT =  1720297856.0000             TOTAL OUT =          33.1196

            IN - OUT =      119552.0000              IN - OUT =       2.4033E-04

 PERCENT DISCREPANCY =           0.01     PERCENT DISCREPANCY =           0.00






         TIME SUMMARY AT END OF TIME STEP   30 IN STRESS PERIOD   19
                    SECONDS     MINUTES      HOURS       DAYS        YEARS
                    -----------------------------------------------------------
   TIME STEP LENGTH  87600.      1460.0      24.333      1.0139     2.77588E-03
 STRESS PERIOD TIME 2.62800E+06  43800.      730.00      30.417     8.32763E-02
         TOTAL TIME 4.99320E+07 8.32200E+05  13870.      577.92      1.5822    
1
1
                            STRESS PERIOD NO.   20, LENGTH =   2628000.    
                            -----------------------------------------------

                              NUMBER OF TIME STEPS =    30

                               MULTIPLIER FOR DELT =     1.000

                            INITIAL TIME STEP SIZE =   87600.00    

 WELL NO.  LAYER   ROW   COL   STRESS RATE         
 --------------------------------------------------
      1      1      6      4       0.000    
      2      1      6      7       0.000    
      3      1      7      4       0.000    
      4      1      7      5       0.000    
      5      1      8      4       0.000    
      6      1      8      5       0.000    
      7      1      9      4       0.000    
      8      1      9      5       0.000    
      9      1     10      4       0.000    
     10      1     10      5       0.000    

     10 WELLS

 REUSING NON-PARAMETER GHB CELLS FROM LAST STRESS PERIOD

      2 GHB CELLS

 REUSING STREAM SEGMENT DATA FROM LAST STRESS PERIOD



            AREAL INFILTRATION RATE
 READING ON UNIT   19 WITH FORMAT: (10F4.0)            

            1           2           3           4           5           6           7           8           9          10
 ........................................................................................................................
   1   1.0000E-10  2.0000E-10   0.000       0.000       0.000       0.000       0.000       0.000       0.000       0.000    
   2   2.0000E-10  1.0000E-10  2.0000E-10   0.000       0.000      8.0000E-10  8.0000E-10  5.0000E-10   0.000       0.000    
   3    0.000      5.0000E-10  1.0000E-10  1.0000E-10  8.0000E-10  8.0000E-10  5.0000E-10  5.0000E-10   0.000       0.000    
   4   8.0000E-10  5.0000E-10  1.0000E-10  1.0000E-10  1.0000E-10  1.0000E-10  1.0000E-10  1.0000E-10  2.0000E-10   0.000    
   5   8.0000E-10  5.0000E-10  1.0000E-10  1.0000E-10  1.0000E-10  1.0000E-10  1.0000E-10  1.0000E-10  1.0000E-10  1.0000E-10
   6   8.0000E-10  5.0000E-10  5.0000E-10  2.0000E-10  2.0000E-10  1.0000E-10  1.0000E-10  1.0000E-10  1.0000E-10  5.0000E-10
   7   8.0000E-10  5.0000E-10  5.0000E-10  2.0000E-10  2.0000E-10  1.0000E-10  1.0000E-10  2.0000E-10  2.0000E-10   0.000    
   8    0.000      5.0000E-10  5.0000E-10  2.0000E-10  2.0000E-10  1.0000E-10  1.0000E-10  2.0000E-10  5.0000E-10   0.000    
   9    0.000      5.0000E-10  5.0000E-10  2.0000E-10  2.0000E-10  1.0000E-10  1.0000E-10  2.0000E-10  5.0000E-10   0.000    
  10    0.000      5.0000E-10  5.0000E-10  2.0000E-10  2.0000E-10  1.0000E-10  1.0000E-10  2.0000E-10  5.0000E-10  8.0000E-10
  11    0.000      1.0000E-10  1.0000E-10  1.0000E-10  1.0000E-10  1.0000E-10  1.0000E-10  2.0000E-10  5.0000E-10   0.000    
  12   1.0000E-10  1.0000E-10  1.0000E-10  1.0000E-10  1.0000E-10  1.0000E-10  1.0000E-10  1.0000E-10  2.0000E-10   0.000    
  13   1.0000E-10  1.0000E-10  2.0000E-10  2.0000E-10  2.0000E-10  2.0000E-10  2.0000E-10  1.0000E-10  1.0000E-10   0.000    
  14    0.000      2.0000E-10  5.0000E-10  5.0000E-10  5.0000E-10  5.0000E-10  5.0000E-10  2.0000E-10  1.0000E-10   0.000    
  15    0.000       0.000      8.0000E-10  8.0000E-10  8.0000E-10  8.0000E-10   0.000       0.000       0.000       0.000    

                  ET RATE =  6.000000E-08

 USING ET EXTINCTION DEPTH FROM PREVIOUS STRESS PERIOD. CURRENT PERIOD IS:      20

 USING EXTINCTION WATER CONTENT FROM PREVIOUS STRESS PERIOD. CURRENT PERIOD IS:      20
 
 SOLVING FOR HEAD 
                                                   Max.-Head-Change                         Max.-Flux-Residual
  Residual-Control   Outer-Iter.   Inner-Iter.     Column Row Layer    Maximum-Head-Change  Column Row Layer    Maximum-Flux-Residual          L2-NORM 
          0                 1           2             7    6     1      -0.2635583903E+00       7    6    1        -0.1438664642E+02      0.1471922044E+02
          0                 2           2             7    6     1       0.2885686276E+00       7    6    1         0.1590945574E+02      0.1591418323E+02
          0                 3           2             7    6     1      -0.1533360338E+00       7    6    1        -0.8519597431E+01      0.8521020197E+01
          0                 4           2             7    6     1       0.1390458612E+00       7    6    1         0.7795191032E+01      0.7795471668E+01
          0                 5           2             7    6     1      -0.4329551995E-02       7    6    1        -0.2458707232E+00      0.2502673296E+00
          0                 6           2             7    6     1      -0.8260603702E-03       7    6    1        -0.4686562463E-01      0.4847889454E-01
          0                 7           2             7    6     1      -0.1578059331E-03       7    6    1        -0.8944917782E-02      0.1024220926E-01
          0                 8           1             7    6     1      -0.3018081249E-04       7    6    1        -0.1709338488E-02      0.2793043356E-02
          0                 9           1             8    2     1       0.8662569474E-05       7    6    1        -0.3270104737E-03      0.1040703800E-02

    ------------------------------------------------
       NWT REQUIRED            9 OUTER ITERATIONS 
       AND A TOTAL OF         16 INNER ITERATIONS.
    ------------------------------------------------

 NO OUTPUT CONTROL FOR STRESS PERIOD   20   TIME STEP    1
 
 SOLVING FOR HEAD 
                                                   Max.-Head-Change                         Max.-Flux-Residual
  Residual-Control   Outer-Iter.   Inner-Iter.     Column Row Layer    Maximum-Head-Change  Column Row Layer    Maximum-Flux-Residual          L2-NORM 
          0                 1           2             7    6     1      -0.1352548888E+00       7    6    1        -0.7388561287E+01      0.7961710832E+01
          0                 2           2             7    6     1       0.1491461342E+00       7    6    1         0.8208558826E+01      0.8219973365E+01
          0                 3           2             7    6     1      -0.7021854545E-02       7    6    1        -0.3913882862E+00      0.4162504944E+00
          0                 4           2             7    6     1      -0.1236014817E-02       7    6    1        -0.6882552750E-01      0.8858871328E-01
          0                 5           2             7    6     1      -0.2178710452E-03       7    6    1        -0.1212103184E-01      0.2743099112E-01
          0                 6           1             8    2     1       0.9537524908E-04       8    2    1         0.2476986538E-02      0.1120081335E-01
          0                 7           1             8    2     1       0.4286514210E-04       8    2    1         0.1113249548E-02      0.4934022753E-02
          0                 8           1             8    2     1       0.1926515377E-04       8    2    1         0.5003351834E-03      0.2202803112E-02
          0                 9           1             8    2     1       0.8658453396E-05       8    2    1         0.2248687965E-03      0.9856417501E-03

    ------------------------------------------------
       NWT REQUIRED            9 OUTER ITERATIONS 
       AND A TOTAL OF         14 INNER ITERATIONS.
    ------------------------------------------------

 NO OUTPUT CONTROL FOR STRESS PERIOD   20   TIME STEP    2
 
 SOLVING FOR HEAD 
                                                   Max.-Head-Change                         Max.-Flux-Residual
  Residual-Control   Outer-Iter.   Inner-Iter.     Column Row Layer    Maximum-Head-Change  Column Row Layer    Maximum-Flux-Residual          L2-NORM 
          0                 1           2             7    6     1      -0.2888367070E+00       7    6    1        -0.1576542946E+02      0.1602115473E+02
     PET DIFF ERROR     6    7   -0.2536542342E-08    0.5999999608E-07
     PET DIFF ERROR     6    8   -0.2536542347E-08    0.5999999608E-07
          0                 2           2             7    6     1       0.3161173909E+00       7    6    1         0.1742852592E+02      0.1743363494E+02
          0                 3           2             7    6     1      -0.3036998302E+00       7    6    1        -0.1687227496E+02      0.1687303758E+02
     PET DIFF ERROR     6    7   -0.1537008859E-08    0.5999999608E-07
     PET DIFF ERROR     6    8   -0.1537008862E-08    0.5999999608E-07
          0                 4           2             7    6     1       0.2971255109E+00       7    6    1         0.1668465303E+02      0.1668497156E+02
          0                 5           2             7    6     1      -0.2915060449E+00       7    6    1        -0.1649223667E+02      0.1649242782E+02
     PET DIFF ERROR     6    7   -0.8986382410E-09    0.5999999608E-07
     PET DIFF ERROR     6    8   -0.8986382417E-09    0.5999999608E-07
          0                 6           2             7    6     1       0.2858600263E+00       7    6    1         0.1634696116E+02      0.1634718580E+02
          0                 7           2             7    6     1      -0.2809791817E+00       7    6    1        -0.1618835634E+02      0.1618851311E+02
     PET DIFF ERROR     6    7   -0.8594698719E-09    0.5999999608E-07
     PET DIFF ERROR     6    8   -0.8594698734E-09    0.5999999608E-07
          0                 8           2             7    6     1       0.2756757611E+00       7    6    1         0.1605358450E+02      0.1605378947E+02
          0                 9           2             7    6     1      -0.2710480605E+00       7    6    1        -0.1590218354E+02      0.1590232675E+02
     PET DIFF ERROR     6    7   -0.6926916045E-09    0.5999999608E-07
     PET DIFF ERROR     6    8   -0.6926916070E-09    0.5999999608E-07
          0                10           2             7    6     1       0.2660315096E+00       7    6    1         0.1577542243E+02      0.1577561211E+02
                                                   Max.-Head-Change                         Max.-Flux-Residual
  Residual-Control   Outer-Iter.   Inner-Iter.     Column Row Layer    Maximum-Head-Change  Column Row Layer    Maximum-Flux-Residual          L2-NORM 
          0                11           2             7    6     1      -0.2617554898E+00       7    6    1        -0.1563769382E+02      0.1563782546E+02
          0                12           2             7    6     1       0.2570041021E+00       7    6    1         0.1551839932E+02      0.1551857536E+02
          0                13           2             7    6     1       0.4072593907E-02       7    6    1         0.2440766512E+00      0.2516114821E+00
          0                14           2             7    6     1       0.9892293416E-03       7    6    1         0.5926281374E-01      0.6132965526E-01
          0                15           2             7    6     1       0.2403664972E-03       7    6    1         0.1439440059E-01      0.1499403957E-01
          0                16           1             7    6     1       0.5842481797E-04       7    6    1         0.3497482833E-02      0.3798686629E-02
          0                17           1             7    6     1       0.1420571896E-04       7    6    1         0.8500881374E-03      0.1403314148E-02
          0                18           1             4   13     1      -0.9761426940E-05       4   13    1        -0.6125821819E-03      0.1065708275E-02

    ------------------------------------------------
       NWT REQUIRED           18 OUTER ITERATIONS 
       AND A TOTAL OF         33 INNER ITERATIONS.
    ------------------------------------------------

 NO OUTPUT CONTROL FOR STRESS PERIOD   20   TIME STEP    3
 
 SOLVING FOR HEAD 
                                                   Max.-Head-Change                         Max.-Flux-Residual
  Residual-Control   Outer-Iter.   Inner-Iter.     Column Row Layer    Maximum-Head-Change  Column Row Layer    Maximum-Flux-Residual          L2-NORM 
          0                 1           2             7    6     1      -0.2792679116E+00       7    6    1        -0.1524352589E+02      0.1548874699E+02
          0                 2           2             7    6     1       0.3056884991E+00       7    6    1         0.1685348637E+02      0.1685859891E+02
          0                 3           2             7    6     1      -0.1419969986E+00       7    6    1        -0.7889866599E+01      0.7891464714E+01
          0                 4           2             7    6     1       0.1254007214E+00       7    6    1         0.7030221004E+01      0.7030509365E+01
          0                 5           2             7    6     1      -0.3606217552E-02       7    6    1        -0.2048636945E+00      0.2094443069E+00
          0                 6           2             7    6     1      -0.6877288170E-03       7    6    1        -0.3903018552E-01      0.4088812673E-01
          0                 7           2             7    6     1      -0.1313216991E-03       7    6    1        -0.7445995319E-02      0.8952871052E-02
          0                 8           1             7    6     1      -0.2510503655E-04       7    6    1        -0.1422281134E-02      0.2622127829E-02
          0                 9           1             8    2     1       0.8649900349E-05       7    6    1        -0.2719808174E-03      0.1022078629E-02

    ------------------------------------------------
       NWT REQUIRED            9 OUTER ITERATIONS 
       AND A TOTAL OF         16 INNER ITERATIONS.
    ------------------------------------------------

 NO OUTPUT CONTROL FOR STRESS PERIOD   20   TIME STEP    4
 
 SOLVING FOR HEAD 
                                                   Max.-Head-Change                         Max.-Flux-Residual
  Residual-Control   Outer-Iter.   Inner-Iter.     Column Row Layer    Maximum-Head-Change  Column Row Layer    Maximum-Flux-Residual          L2-NORM 
          0                 1           2             7    6     1      -0.1225241096E+00       7    6    1        -0.6694194536E+01      0.7193590075E+01
          0                 2           2             7    6     1       0.1352701177E+00       7    6    1         0.7444713465E+01      0.7456103114E+01
          0                 3           2             7    6     1      -0.6079873752E-02       7    6    1        -0.3389704604E+00      0.3665404535E+00
          0                 4           2             7    6     1      -0.1069782587E-02       7    6    1        -0.5958389677E-01      0.8149446427E-01
          0                 5           2             8    2     1       0.2119009415E-03       7    6    1        -0.1048939555E-01      0.2669432032E-01
          0                 6           1             8    2     1       0.9523609905E-04       8    2    1         0.2473373764E-02      0.1112192399E-01
          0                 7           1             8    2     1       0.4280258032E-04       8    2    1         0.1111625239E-02      0.4917627177E-02
          0                 8           1             8    2     1       0.1923702628E-04       8    2    1         0.4996048940E-03      0.2196717457E-02
          0                 9           1             8    2     1       0.8645807032E-05       8    2    1         0.2245404546E-03      0.9829622056E-03

    ------------------------------------------------
       NWT REQUIRED            9 OUTER ITERATIONS 
       AND A TOTAL OF         14 INNER ITERATIONS.
    ------------------------------------------------

 NO OUTPUT CONTROL FOR STRESS PERIOD   20   TIME STEP    5
 
 SOLVING FOR HEAD 
                                                   Max.-Head-Change                         Max.-Flux-Residual
  Residual-Control   Outer-Iter.   Inner-Iter.     Column Row Layer    Maximum-Head-Change  Column Row Layer    Maximum-Flux-Residual          L2-NORM 
          0                 1           2             7    6     1      -0.2888992520E+00       7    6    1        -0.1576887306E+02      0.1597341814E+02
          0                 2           2             7    6     1       0.3161843652E+00       7    6    1         0.1743225745E+02      0.1743695811E+02
          0                 3           2             7    6     1      -0.1805180800E-01       7    6    1        -0.1004969535E+01      0.1017623901E+01
          0                 4           2             7    6     1      -0.3183411468E-02       7    6    1        -0.1770591285E+00      0.1857188833E+00
          0                 5           2             7    6     1      -0.5621310571E-03       7    6    1        -0.3123870779E-01      0.3973607096E-01
          0                 6           1             7    6     1      -0.9937909205E-04       7    6    1        -0.5518449087E-02      0.1231563178E-01
          0                 7           1             8    2     1       0.4278154924E-04       8    2    1         0.1111079169E-02      0.5113198374E-02
          0                 8           1             8    2     1       0.1922757158E-04       4   13    1        -0.6275455198E-03      0.2446247477E-02
          0                 9           1             4   13     1      -0.1074492074E-04       4   13    1        -0.6268720626E-03      0.1455552534E-02
          0                10           1             4   13     1      -0.1011698388E-04       4   13    1        -0.5903315887E-03      0.1099660547E-02
                                                   Max.-Head-Change                         Max.-Flux-Residual
  Residual-Control   Outer-Iter.   Inner-Iter.     Column Row Layer    Maximum-Head-Change  Column Row Layer    Maximum-Flux-Residual          L2-NORM 
          0                11           1             4   13     1      -0.1194101431E-04       4   13    1        -0.6968021416E-03      0.1203827277E-02
          0                12           1             4   13     1      -0.8127104856E-05       4   13    1        -0.4742046394E-03      0.8163493817E-03

    ------------------------------------------------
       NWT REQUIRED           12 OUTER ITERATIONS 
       AND A TOTAL OF         17 INNER ITERATIONS.
    ------------------------------------------------

 NO OUTPUT CONTROL FOR STRESS PERIOD   20   TIME STEP    6
 
 SOLVING FOR HEAD 
                                                   Max.-Head-Change                         Max.-Flux-Residual
  Residual-Control   Outer-Iter.   Inner-Iter.     Column Row Layer    Maximum-Head-Change  Column Row Layer    Maximum-Flux-Residual          L2-NORM 
          0                 1           2             7    6     1      -0.2834878078E+00       7    6    1        -0.1547372469E+02      0.1566954315E+02
          0                 2           2             7    6     1       0.3102862921E+00       7    6    1         0.1710704799E+02      0.1711126843E+02
          0                 3           2             7    6     1      -0.2023223394E+00       7    6    1        -0.1124090530E+02      0.1124202239E+02
          0                 4           2             7    6     1       0.1895536234E+00       7    6    1         0.1062679218E+02      0.1062705890E+02
          0                 5           2             7    6     1      -0.7008441951E-02       7    6    1        -0.3977527990E+00      0.4021132884E+00
          0                 6           2             7    6     1      -0.1338325078E-02       7    6    1        -0.7588359936E-01      0.7702208092E-01
          0                 7           2             7    6     1      -0.2558722892E-03       7    6    1        -0.1449552766E-01      0.1532959468E-01
          0                 8           1             7    6     1      -0.4897383488E-04       7    6    1        -0.2772233196E-02      0.3537877008E-02
          0                 9           1             7    6     1      -0.9382899690E-05       7    6    1        -0.5307521099E-03      0.1117245771E-02

    ------------------------------------------------
       NWT REQUIRED            9 OUTER ITERATIONS 
       AND A TOTAL OF         16 INNER ITERATIONS.
    ------------------------------------------------

 NO OUTPUT CONTROL FOR STRESS PERIOD   20   TIME STEP    7
 
 SOLVING FOR HEAD 
                                                   Max.-Head-Change                         Max.-Flux-Residual
  Residual-Control   Outer-Iter.   Inner-Iter.     Column Row Layer    Maximum-Head-Change  Column Row Layer    Maximum-Flux-Residual          L2-NORM 
          0                 1           2             7    6     1      -0.1836442042E+00       7    6    1        -0.1002791209E+02      0.1030862584E+02
          0                 2           2             7    6     1       0.2018819267E+00       7    6    1         0.1111165831E+02      0.1111869610E+02
          0                 3           2             7    6     1      -0.1060348702E-01       7    6    1        -0.5906986550E+00      0.6087049350E+00
          0                 4           2             7    6     1      -0.1868046154E-02       7    6    1        -0.1039640192E+00      0.1179532474E+00
          0                 5           2             7    6     1      -0.3295494926E-03       7    6    1        -0.1832460603E-01      0.3059692482E-01
          0                 6           1             8    2     1       0.9509584178E-04       7    6    1        -0.3234138472E-02      0.1141309648E-01
          0                 7           1             8    2     1       0.4273952233E-04       8    2    1         0.1109988011E-02      0.5068815596E-02
          0                 8           1             8    2     1       0.1920867644E-04       8    2    1         0.4988688236E-03      0.2194529866E-02
          0                 9           1             8    2     1       0.8633061623E-05       8    2    1         0.2242095328E-03      0.9807893956E-03

    ------------------------------------------------
       NWT REQUIRED            9 OUTER ITERATIONS 
       AND A TOTAL OF         14 INNER ITERATIONS.
    ------------------------------------------------

 NO OUTPUT CONTROL FOR STRESS PERIOD   20   TIME STEP    8
 
 SOLVING FOR HEAD 
                                                   Max.-Head-Change                         Max.-Flux-Residual
  Residual-Control   Outer-Iter.   Inner-Iter.     Column Row Layer    Maximum-Head-Change  Column Row Layer    Maximum-Flux-Residual          L2-NORM 
          0                 1           2             7    6     1      -0.2881434748E+00       7    6    1        -0.1572768218E+02      0.1589861579E+02
          0                 2           2             7    6     1       0.3153593196E+00       7    6    1         0.1738680260E+02      0.1739128597E+02
          0                 3           2             7    6     1      -0.1894153029E+00       7    6    1        -0.1052398757E+02      0.1052519732E+02
          0                 4           2             7    6     1       0.1752933747E+00       7    6    1         0.9827341902E+01      0.9827607664E+01
          0                 5           2             7    6     1      -0.6252492155E-02       7    6    1        -0.3548954515E+00      0.3592092488E+00
          0                 6           2             7    6     1      -0.1193761614E-02       7    6    1        -0.6769494136E-01      0.6891950814E-01
          0                 7           2             7    6     1      -0.2281959494E-03       7    6    1        -0.1292909500E-01      0.1385308942E-01
          0                 8           1             7    6     1      -0.4366977414E-04       7    6    1        -0.2472258000E-02      0.3305926789E-02
          0                 9           1             8    2     1       0.8628835247E-05       7    6    1        -0.4732483924E-03      0.1089702055E-02

    ------------------------------------------------
       NWT REQUIRED            9 OUTER ITERATIONS 
       AND A TOTAL OF         16 INNER ITERATIONS.
    ------------------------------------------------

 NO OUTPUT CONTROL FOR STRESS PERIOD   20   TIME STEP    9
 
 SOLVING FOR HEAD 
                                                   Max.-Head-Change                         Max.-Flux-Residual
  Residual-Control   Outer-Iter.   Inner-Iter.     Column Row Layer    Maximum-Head-Change  Column Row Layer    Maximum-Flux-Residual          L2-NORM 
          0                 1           2             7    6     1      -0.1701492838E+00       7    6    1        -0.9291862998E+01      0.9561595530E+01
          0                 2           2             7    6     1       0.1871733694E+00       7    6    1         0.1030197779E+02      0.1030929649E+02
          0                 3           2             7    6     1      -0.9604981045E-02       7    6    1        -0.5351351392E+00      0.5543532294E+00
          0                 4           2             7    6     1      -0.1691839336E-02       7    6    1        -0.9416781826E-01      0.1093450574E+00
          0                 5           2             7    6     1      -0.2984132004E-03       7    6    1        -0.1659506686E-01      0.2955880081E-01
          0                 6           1             8    2     1       0.9500473658E-04       7    6    1        -0.2928393569E-02      0.1131150503E-01
          0                 7           1             8    2     1       0.4269856189E-04       8    2    1         0.1108924533E-02      0.4914892497E-02
          0                 8           1             8    2     1       0.1919026027E-04       8    2    1         0.4983906810E-03      0.2189027659E-02
          0                 9           1             8    2     1       0.8624781947E-05       8    2    1         0.2239945623E-03      0.9790654614E-03

    ------------------------------------------------
       NWT REQUIRED            9 OUTER ITERATIONS 
       AND A TOTAL OF         14 INNER ITERATIONS.
    ------------------------------------------------

 NO OUTPUT CONTROL FOR STRESS PERIOD   20   TIME STEP   10
 
 SOLVING FOR HEAD 
                                                   Max.-Head-Change                         Max.-Flux-Residual
  Residual-Control   Outer-Iter.   Inner-Iter.     Column Row Layer    Maximum-Head-Change  Column Row Layer    Maximum-Flux-Residual          L2-NORM 
          0                 1           2             7    6     1      -0.2884357631E+00       7    6    1        -0.1574364578E+02      0.1589628944E+02
     PET DIFF ERROR     6    7   -0.3071848616E-07    0.5999999608E-07
     PET DIFF ERROR     6    8   -0.3071848620E-07    0.5999999608E-07
          0                 2           2             7    6     1       0.3156769103E+00       7    6    1         0.1740434040E+02      0.1740822109E+02
          0                 3           2             7    6     1      -0.2493959569E+00       7    6    1        -0.1385585858E+02      0.1385676882E+02
          0                 4           2             7    6     1       0.2394548230E+00       7    6    1         0.1342439746E+02      0.1342467503E+02
          0                 5           2             7    6     1      -0.9654955679E-02       7    6    1        -0.5477985051E+00      0.5524883318E+00
          0                 6           2             7    6     1      -0.1844403829E-02       7    6    1        -0.1045510078E+00      0.1055015731E+00
          0                 7           2             7    6     1      -0.3527552067E-03       7    6    1        -0.1997912671E-01      0.2059491838E-01
          0                 8           1             7    6     1      -0.6754020113E-04       7    6    1        -0.3822303867E-02      0.4406022046E-02
          0                 9           1             7    6     1      -0.1294430315E-04       7    6    1        -0.7320324894E-03      0.1223459586E-02
          0                10           1             8    2     1       0.3874384384E-05       7    6    1        -0.1403259571E-03      0.4606753900E-03

    ------------------------------------------------
       NWT REQUIRED           10 OUTER ITERATIONS 
       AND A TOTAL OF         17 INNER ITERATIONS.
    ------------------------------------------------

 NO OUTPUT CONTROL FOR STRESS PERIOD   20   TIME STEP   11
 
 SOLVING FOR HEAD 
                                                   Max.-Head-Change                         Max.-Flux-Residual
  Residual-Control   Outer-Iter.   Inner-Iter.     Column Row Layer    Maximum-Head-Change  Column Row Layer    Maximum-Flux-Residual          L2-NORM 
          0                 1           2             7    6     1      -0.2312139167E+00       7    6    1        -0.1262256519E+02      0.1280240159E+02
          0                 2           2             7    6     1       0.2537249635E+00       7    6    1         0.1396561006E+02      0.1397040062E+02
          0                 3           2             7    6     1      -0.2482121077E+00       7    6    1        -0.1378992228E+02      0.1379077829E+02
          0                 4           2             7    6     1       0.2432494502E+00       7    6    1         0.1363713562E+02      0.1363741279E+02
          0                 5           2             7    6     1      -0.9856266256E-02       7    6    1        -0.5592133216E+00      0.5639395594E+00
          0                 6           2             7    6     1      -0.1882893536E-02       7    6    1        -0.1067315302E+00      0.1076727740E+00
          0                 7           2             7    6     1      -0.3601226506E-03       7    6    1        -0.2039616362E-01      0.2099937389E-01
          0                 8           1             7    6     1      -0.6895192035E-04       7    6    1        -0.3902153534E-02      0.4474633915E-02
          0                 9           1             7    6     1      -0.1321507395E-04       7    6    1        -0.7473364894E-03      0.1232060049E-02
          0                10           1             8    2     1       0.3872489543E-05       7    6    1        -0.1432619445E-03      0.4612316204E-03

    ------------------------------------------------
       NWT REQUIRED           10 OUTER ITERATIONS 
       AND A TOTAL OF         17 INNER ITERATIONS.
    ------------------------------------------------

 NO OUTPUT CONTROL FOR STRESS PERIOD   20   TIME STEP   12
 
 SOLVING FOR HEAD 
                                                   Max.-Head-Change                         Max.-Flux-Residual
  Residual-Control   Outer-Iter.   Inner-Iter.     Column Row Layer    Maximum-Head-Change  Column Row Layer    Maximum-Flux-Residual          L2-NORM 
          0                 1           2             7    6     1      -0.2339738511E+00       7    6    1        -0.1277311051E+02      0.1294175926E+02
          0                 2           2             7    6     1       0.2563206296E+00       7    6    1         0.1413141877E+02      0.1413613404E+02
          0                 3           2             7    6     1      -0.2481981872E+00       7    6    1        -0.1378893759E+02      0.1378974931E+02
          0                 4           2             7    6     1       0.2434101056E+00       7    6    1         0.1364618792E+02      0.1364647280E+02
          0                 5           2             7    6     1      -0.9865013399E-02       7    6    1        -0.5597034221E+00      0.5643987270E+00
          0                 6           2             7    6     1      -0.1884592594E-02       7    6    1        -0.1068267552E+00      0.1077631344E+00
          0                 7           2             7    6     1      -0.3604525441E-03       7    6    1        -0.2041465700E-01      0.2101624067E-01
          0                 8           1             7    6     1      -0.6901595202E-04       7    6    1        -0.3905743715E-02      0.4477023373E-02
          0                 9           1             7    6     1      -0.1322749722E-04       7    6    1        -0.7480328684E-03      0.1231945067E-02
          0                10           1             8    2     1       0.3870598703E-05       7    6    1        -0.1433970638E-03      0.4609793257E-03

    ------------------------------------------------
       NWT REQUIRED           10 OUTER ITERATIONS 
       AND A TOTAL OF         17 INNER ITERATIONS.
    ------------------------------------------------

 NO OUTPUT CONTROL FOR STRESS PERIOD   20   TIME STEP   13
 
 SOLVING FOR HEAD 
                                                   Max.-Head-Change                         Max.-Flux-Residual
  Residual-Control   Outer-Iter.   Inner-Iter.     Column Row Layer    Maximum-Head-Change  Column Row Layer    Maximum-Flux-Residual          L2-NORM 
          0                 1           2             7    6     1      -0.2340986046E+00       7    6    1        -0.1277992316E+02      0.1294017438E+02
          0                 2           2             7    6     1       0.2564561069E+00       7    6    1         0.1413889960E+02      0.1414359996E+02
          0                 3           2             7    6     1      -0.2478409372E+00       7    6    1        -0.1376910402E+02      0.1376991649E+02
          0                 4           2             7    6     1       0.2430158599E+00       7    6    1         0.1362409552E+02      0.1362438011E+02
          0                 5           2             7    6     1      -0.9844222539E-02       7    6    1        -0.5585251470E+00      0.5632166006E+00
          0                 6           2             7    6     1      -0.1880614791E-02       7    6    1        -0.1066015158E+00      0.1075380972E+00
          0                 7           2             7    6     1      -0.3596906571E-03       7    6    1        -0.2037155023E-01      0.2097355380E-01
          0                 8           1             7    6     1      -0.6886987535E-04       7    6    1        -0.3897484965E-02      0.4469063609E-02
          0                 9           1             7    6     1      -0.1319946397E-04       7    6    1        -0.7464490752E-03      0.1230409772E-02
          0                10           1             8    2     1       0.3868711365E-05       7    6    1        -0.1430930511E-03      0.4605665805E-03

    ------------------------------------------------
       NWT REQUIRED           10 OUTER ITERATIONS 
       AND A TOTAL OF         17 INNER ITERATIONS.
    ------------------------------------------------

 NO OUTPUT CONTROL FOR STRESS PERIOD   20   TIME STEP   14
 
 SOLVING FOR HEAD 
                                                   Max.-Head-Change                         Max.-Flux-Residual
  Residual-Control   Outer-Iter.   Inner-Iter.     Column Row Layer    Maximum-Head-Change  Column Row Layer    Maximum-Flux-Residual          L2-NORM 
          0                 1           2             7    6     1      -0.2337258921E+00       7    6    1        -0.1275960223E+02      0.1291252087E+02
          0                 2           2             7    6     1       0.2560492952E+00       7    6    1         0.1411647816E+02      0.1412116705E+02
          0                 3           2             7    6     1      -0.2489050481E+00       7    6    1        -0.1382822176E+02      0.1382902930E+02
          0                 4           2             7    6     1       0.2441905600E+00       7    6    1         0.1368996197E+02      0.1369024694E+02
          0                 5           2             7    6     1      -0.9906659335E-02       7    6    1        -0.5620654253E+00      0.5667660956E+00
          0                 6           2             7    6     1      -0.1892552599E-02       7    6    1        -0.1072778179E+00      0.1082109696E+00
          0                 7           2             7    6     1      -0.3619757052E-03       7    6    1        -0.2050089780E-01      0.2109858442E-01
          0                 8           1             7    6     1      -0.6930771840E-04       7    6    1        -0.3922250817E-02      0.4489998469E-02
          0                 9           1             7    6     1      -0.1328344048E-04       7    6    1        -0.7511955775E-03      0.1233009046E-02
          0                10           1             8    2     1       0.3866750745E-05       7    6    1        -0.1440035987E-03      0.4605468200E-03

    ------------------------------------------------
       NWT REQUIRED           10 OUTER ITERATIONS 
       AND A TOTAL OF         17 INNER ITERATIONS.
    ------------------------------------------------

 NO OUTPUT CONTROL FOR STRESS PERIOD   20   TIME STEP   15
 
 SOLVING FOR HEAD 
                                                   Max.-Head-Change                         Max.-Flux-Residual
  Residual-Control   Outer-Iter.   Inner-Iter.     Column Row Layer    Maximum-Head-Change  Column Row Layer    Maximum-Flux-Residual          L2-NORM 
          0                 1           2             7    6     1      -0.2348380773E+00       7    6    1        -0.1282027321E+02      0.1296566272E+02
          0                 2           2             7    6     1       0.2572609150E+00       7    6    1         0.1418329842E+02      0.1418798263E+02
          0                 3           2             7    6     1      -0.2456745406E+00       7    6    1        -0.1364878908E+02      0.1364960853E+02
          0                 4           2             7    6     1       0.2406264901E+00       7    6    1         0.1349016141E+02      0.1349044472E+02
          0                 5           2             7    6     1      -0.9717780451E-02       7    6    1        -0.5513574573E+00      0.5560277393E+00
          0                 6           2             7    6     1      -0.1856431443E-02       7    6    1        -0.1052318112E+00      0.1061724014E+00
          0                 7           2             7    6     1      -0.3550602095E-03       7    6    1        -0.2010950050E-01      0.2071711948E-01
          0                 8           1             7    6     1      -0.6798235766E-04       7    6    1        -0.3847295460E-02      0.4423727136E-02
          0                 9           1             7    6     1      -0.1302919293E-04       7    6    1        -0.7368271426E-03      0.1223385220E-02
          0                10           1             8    2     1       0.3864870660E-05       7    6    1        -0.1412466784E-03      0.4593416679E-03

    ------------------------------------------------
       NWT REQUIRED           10 OUTER ITERATIONS 
       AND A TOTAL OF         17 INNER ITERATIONS.
    ------------------------------------------------

 NO OUTPUT CONTROL FOR STRESS PERIOD   20   TIME STEP   16
 
 SOLVING FOR HEAD 
                                                   Max.-Head-Change                         Max.-Flux-Residual
  Residual-Control   Outer-Iter.   Inner-Iter.     Column Row Layer    Maximum-Head-Change  Column Row Layer    Maximum-Flux-Residual          L2-NORM 
          0                 1           2             7    6     1      -0.2314646498E+00       7    6    1        -0.1263628144E+02      0.1277751266E+02
          0                 2           2             7    6     1       0.2539958007E+00       7    6    1         0.1398057157E+02      0.1398524020E+02
          0                 3           2             7    6     1      -0.2552969744E+00       7    6    1        -0.1418353322E+02      0.1418436183E+02
          0                 4           2             7    6     1       0.2504033744E+00       7    6    1         0.1406110056E+02      0.1406138056E+02
          0                 5           2             7    6     1      -0.9929721712E-02       7    6    1        -0.5631841188E+00      0.5672096057E+00
          0                 6           2             7    6     1      -0.1897812746E-02       7    6    1        -0.1075427713E+00      0.1084054785E+00
          0                 7           2             7    6     1      -0.3631315406E-03       7    6    1        -0.2056054195E-01      0.2115115468E-01
          0                 8           1             7    6     1      -0.6955513997E-04       7    6    1        -0.3935204297E-02      0.4500200441E-02
          0                 9           1             7    6     1      -0.1333555808E-04       7    6    1        -0.7539510311E-03      0.1233432644E-02
          0                10           1             8    2     1       0.3862994077E-05       7    6    1        -0.1445821083E-03      0.4601052290E-03

    ------------------------------------------------
       NWT REQUIRED           10 OUTER ITERATIONS 
       AND A TOTAL OF         17 INNER ITERATIONS.
    ------------------------------------------------

 NO OUTPUT CONTROL FOR STRESS PERIOD   20   TIME STEP   17
 
 SOLVING FOR HEAD 
                                                   Max.-Head-Change                         Max.-Flux-Residual
  Residual-Control   Outer-Iter.   Inner-Iter.     Column Row Layer    Maximum-Head-Change  Column Row Layer    Maximum-Flux-Residual          L2-NORM 
          0                 1           2             7    6     1      -0.2411723802E+00       7    6    1        -0.1316578737E+02      0.1329608263E+02
          0                 2           2             7    6     1       0.2641633366E+00       7    6    1         0.1456392550E+02      0.1456882834E+02
          0                 3           2             7    6     1      -0.2232241635E+00       7    6    1        -0.1240175966E+02      0.1240267602E+02
          0                 4           2             7    6     1       0.2159918284E+00       7    6    1         0.1210909713E+02      0.1210937142E+02
          0                 5           2             7    6     1      -0.8411708686E-02       7    6    1        -0.4773108418E+00      0.4817922370E+00
          0                 6           2             7    6     1      -0.1606669561E-02       7    6    1        -0.9108411656E-01      0.9209385626E-01
          0                 7           2             7    6     1      -0.3072446164E-03       7    6    1        -0.1740318952E-01      0.1809629858E-01
          0                 8           1             7    6     1      -0.5881882723E-04       7    6    1        -0.3329039168E-02      0.3979185865E-02
          0                 9           1             7    6     1      -0.1127139417E-04       7    6    1        -0.6374841657E-03      0.1164769183E-02
          0                10           1             8    2     1       0.3861120995E-05       7    6    1        -0.1221862587E-03      0.4530720742E-03

    ------------------------------------------------
       NWT REQUIRED           10 OUTER ITERATIONS 
       AND A TOTAL OF         17 INNER ITERATIONS.
    ------------------------------------------------

 NO OUTPUT CONTROL FOR STRESS PERIOD   20   TIME STEP   18
 
 SOLVING FOR HEAD 
                                                   Max.-Head-Change                         Max.-Flux-Residual
  Residual-Control   Outer-Iter.   Inner-Iter.     Column Row Layer    Maximum-Head-Change  Column Row Layer    Maximum-Flux-Residual          L2-NORM 
          0                 1           2             7    6     1      -0.2081241349E+00       7    6    1        -0.1136321263E+02      0.1150815389E+02
          0                 2           2             7    6     1       0.2285566886E+00       7    6    1         0.1258018487E+02      0.1258534687E+02
          0                 3           2             7    6     1      -0.2927780752E+00       7    6    1        -0.1626542013E+02      0.1626610529E+02
     PET DIFF ERROR     6    7   -0.4290381264E-08    0.5999999608E-07
     PET DIFF ERROR     6    8   -0.4290381267E-08    0.5999999608E-07
          0                 4           2             7    6     1       0.2927586620E+00       7    6    1         0.1643962540E+02      0.1643994164E+02
          0                 5           2             7    6     1      -0.2833905781E+00       7    6    1        -0.1603330779E+02      0.1603349784E+02
     PET DIFF ERROR     6    7   -0.2710058562E-08    0.5999999608E-07
     PET DIFF ERROR     6    8   -0.2710058569E-08    0.5999999608E-07
          0                 6           2             7    6     1       0.2776327457E+00       7    6    1         0.1587665714E+02      0.1587687426E+02
          0                 7           2             7    6     1      -0.2712495258E+00       7    6    1        -0.1562798199E+02      0.1562813461E+02
          0                 8           2             7    6     1       0.2660463158E+00       7    6    1         0.1549299767E+02      0.1549319315E+02
          0                 9           2             7    6     1      -0.3197429554E-02       7    6    1        -0.1890792477E+00      0.1999314178E+00
          0                10           2             7    6     1      -0.6990797639E-03       7    6    1        -0.4129869502E-01      0.4317297380E-01
                                                   Max.-Head-Change                         Max.-Flux-Residual
  Residual-Control   Outer-Iter.   Inner-Iter.     Column Row Layer    Maximum-Head-Change  Column Row Layer    Maximum-Flux-Residual          L2-NORM 
          0                11           2             7    6     1      -0.1530121539E-03       7    6    1        -0.9030748685E-02      0.9385862905E-02
          0                12           1             7    6     1      -0.3352538000E-04       7    6    1        -0.1976882161E-02      0.2312367460E-02
          0                13           1             4   13     1      -0.9195614052E-05       4   13    1        -0.5564212297E-03      0.1044707912E-02

    ------------------------------------------------
       NWT REQUIRED           13 OUTER ITERATIONS 
       AND A TOTAL OF         24 INNER ITERATIONS.
    ------------------------------------------------

 NO OUTPUT CONTROL FOR STRESS PERIOD   20   TIME STEP   19
 
 SOLVING FOR HEAD 
                                                   Max.-Head-Change                         Max.-Flux-Residual
  Residual-Control   Outer-Iter.   Inner-Iter.     Column Row Layer    Maximum-Head-Change  Column Row Layer    Maximum-Flux-Residual          L2-NORM 
          0                 1           2             7    6     1      -0.2716932697E+00       7    6    1        -0.1483053623E+02      0.1493827174E+02
          0                 2           2             7    6     1       0.2974253937E+00       7    6    1         0.1639805005E+02      0.1640573935E+02
          0                 3           2             7    6     1      -0.1324376572E+00       7    6    1        -0.7358891846E+01      0.7360608399E+01
          0                 4           2             7    6     1       0.1159000341E+00       7    6    1         0.6497670585E+01      0.6497965341E+01
          0                 5           2             7    6     1      -0.3104232901E-02       7    6    1        -0.1764054135E+00      0.1811618133E+00
          0                 6           2             7    6     1      -0.5917287728E-03       7    6    1        -0.3359252549E-01      0.3565022180E-01
          0                 7           2             7    6     1      -0.1129420410E-03       7    6    1        -0.6405770591E-02      0.8069942758E-02
          0                 8           1             7    6     1      -0.2158252043E-04       7    6    1        -0.1223068549E-02      0.2495664776E-02
          0                 9           1             8    2     1       0.8582581461E-05       7    6    1        -0.2337912074E-03      0.1000346208E-02

    ------------------------------------------------
       NWT REQUIRED            9 OUTER ITERATIONS 
       AND A TOTAL OF         16 INNER ITERATIONS.
    ------------------------------------------------

 NO OUTPUT CONTROL FOR STRESS PERIOD   20   TIME STEP   20
 
 SOLVING FOR HEAD 
                                                   Max.-Head-Change                         Max.-Flux-Residual
  Residual-Control   Outer-Iter.   Inner-Iter.     Column Row Layer    Maximum-Head-Change  Column Row Layer    Maximum-Flux-Residual          L2-NORM 
          0                 1           2             7    6     1      -0.1133658790E+00       7    6    1        -0.6194725972E+01      0.6438979947E+01
          0                 2           2             7    6     1       0.1252812473E+00       7    6    1         0.6894918900E+01      0.6904405568E+01
          0                 3           2             7    6     1      -0.5403458533E-02       7    6    1        -0.3013329391E+00      0.3306956830E+00
          0                 4           2             7    6     1      -0.9504039747E-03       7    6    1        -0.5294750102E-01      0.7632069379E-01
          0                 5           2             8    2     1       0.2102521472E-03       7    6    1        -0.9317614978E-02      0.2599747580E-01
          0                 6           1             8    2     1       0.9449482720E-04       8    2    1         0.2454127375E-02      0.1096195014E-01
          0                 7           1             8    2     1       0.4246931661E-04       8    2    1         0.1102972364E-02      0.4855853042E-02
          0                 8           1             8    2     1       0.1908719651E-04       8    2    1         0.4957147065E-03      0.2169194296E-02
          0                 9           1             8    2     1       0.8578446875E-05       8    2    1         0.2227914996E-03      0.9704423098E-03

    ------------------------------------------------
       NWT REQUIRED            9 OUTER ITERATIONS 
       AND A TOTAL OF         14 INNER ITERATIONS.
    ------------------------------------------------

 NO OUTPUT CONTROL FOR STRESS PERIOD   20   TIME STEP   21
 
 SOLVING FOR HEAD 
                                                   Max.-Head-Change                         Max.-Flux-Residual
  Residual-Control   Outer-Iter.   Inner-Iter.     Column Row Layer    Maximum-Head-Change  Column Row Layer    Maximum-Flux-Residual          L2-NORM 
          0                 1           2             7    6     1      -0.2889178405E+00       7    6    1        -0.1577005393E+02      0.1586501697E+02
          0                 2           2             7    6     1       0.3161964005E+00       7    6    1         0.1743312728E+02      0.1743681145E+02
          0                 3           2             7    6     1      -0.1805429845E-01       7    6    1        -0.1005120014E+01      0.1017476845E+01
          0                 4           2             7    6     1      -0.3183797660E-02       7    6    1        -0.1770826178E+00      0.1855682199E+00
          0                 5           2             7    6     1      -0.5621902664E-03       7    6    1        -0.3124233971E-01      0.3957649830E-01
          0                 6           1             7    6     1      -0.9938803766E-04       7    6    1        -0.5519003512E-02      0.1219226427E-01
          0                 7           1             8    2     1       0.4244889279E-04       8    2    1         0.1102442093E-02      0.5037269112E-02
          0                 8           1             8    2     1       0.1907801418E-04       4   13    1        -0.5881296393E-03      0.2395160647E-02
          0                 9           1             4   13     1      -0.1056219266E-04       4   13    1        -0.6161654046E-03      0.1431317681E-02
          0                10           1             4   13     1      -0.1116543032E-04       4   13    1        -0.6514314910E-03      0.1193462323E-02
                                                   Max.-Head-Change                         Max.-Flux-Residual
  Residual-Control   Outer-Iter.   Inner-Iter.     Column Row Layer    Maximum-Head-Change  Column Row Layer    Maximum-Flux-Residual          L2-NORM 
          0                11           1             4   13     1      -0.1158879289E-04       4   13    1        -0.6761523100E-03      0.1170256528E-02
          0                12           1             4   13     1      -0.1128289685E-04       4   13    1        -0.6582983560E-03      0.1127563922E-02
          0                13           1             4   13     1      -0.1039189263E-04       4   13    1        -0.6062943394E-03      0.1037771988E-02
          0                14           1             4   13     1      -0.8782173256E-05       4   13    1        -0.5123934206E-03      0.8742387356E-03

    ------------------------------------------------
       NWT REQUIRED           14 OUTER ITERATIONS 
       AND A TOTAL OF         19 INNER ITERATIONS.
    ------------------------------------------------

 NO OUTPUT CONTROL FOR STRESS PERIOD   20   TIME STEP   22
 
 SOLVING FOR HEAD 
                                                   Max.-Head-Change                         Max.-Flux-Residual
  Residual-Control   Outer-Iter.   Inner-Iter.     Column Row Layer    Maximum-Head-Change  Column Row Layer    Maximum-Flux-Residual          L2-NORM 
          0                 1           2             7    6     1      -0.2828596010E+00       7    6    1        -0.1543962251E+02      0.1553419791E+02
          0                 2           2             7    6     1       0.3095932968E+00       7    6    1         0.1706903797E+02      0.1707286301E+02
          0                 3           2             7    6     1      -0.2546321977E+00       7    6    1        -0.1414681098E+02      0.1414768214E+02
          0                 4           2             7    6     1       0.2455955863E+00       7    6    1         0.1376878484E+02      0.1376906369E+02
          0                 5           2             7    6     1      -0.9982117646E-02       7    6    1        -0.5663519035E+00      0.5710827542E+00
          0                 6           2             7    6     1      -0.1906944844E-02       7    6    1        -0.1080945944E+00      0.1090209305E+00
          0                 7           2             7    6     1      -0.3647241649E-03       7    6    1        -0.2065673625E-01      0.2124356137E-01
          0                 8           1             7    6     1      -0.6983319325E-04       7    6    1        -0.3952020561E-02      0.4509276393E-02
          0                 9           1             7    6     1      -0.1338401306E-04       7    6    1        -0.7568889471E-03      0.1231218418E-02
          0                10           1             8    2     1       0.3851658544E-05       7    6    1        -0.1450935374E-03      0.4581575332E-03

    ------------------------------------------------
       NWT REQUIRED           10 OUTER ITERATIONS 
       AND A TOTAL OF         17 INNER ITERATIONS.
    ------------------------------------------------

 NO OUTPUT CONTROL FOR STRESS PERIOD   20   TIME STEP   23
 
 SOLVING FOR HEAD 
                                                   Max.-Head-Change                         Max.-Flux-Residual
  Residual-Control   Outer-Iter.   Inner-Iter.     Column Row Layer    Maximum-Head-Change  Column Row Layer    Maximum-Flux-Residual          L2-NORM 
          0                 1           2             7    6     1      -0.2369721357E+00       7    6    1        -0.1293673778E+02      0.1304668682E+02
          0                 2           2             7    6     1       0.2595822526E+00       7    6    1         0.1431138419E+02      0.1431612873E+02
          0                 3           2             7    6     1      -0.2389483850E+00       7    6    1        -0.1327525349E+02      0.1327609476E+02
          0                 4           2             7    6     1       0.2332237691E+00       7    6    1         0.1307522258E+02      0.1307550171E+02
          0                 5           2             7    6     1      -0.9326283855E-02       7    6    1        -0.5291650893E+00      0.5337693957E+00
          0                 6           2             7    6     1      -0.1781551086E-02       7    6    1        -0.1009908239E+00      0.1019428387E+00
          0                 7           2             7    6     1      -0.3407221923E-03       7    6    1        -0.1929809346E-01      0.1992191953E-01
          0                 8           1             7    6     1      -0.6523410061E-04       7    6    1        -0.3691884168E-02      0.4282020069E-02
          0                 9           1             7    6     1      -0.1250192035E-04       7    6    1        -0.7070319555E-03      0.1200400682E-02
          0                10           1             8    2     1       0.3849804721E-05       7    6    1        -0.1355290583E-03      0.4547864673E-03

    ------------------------------------------------
       NWT REQUIRED           10 OUTER ITERATIONS 
       AND A TOTAL OF         17 INNER ITERATIONS.
    ------------------------------------------------

 NO OUTPUT CONTROL FOR STRESS PERIOD   20   TIME STEP   24
 
 SOLVING FOR HEAD 
                                                   Max.-Head-Change                         Max.-Flux-Residual
  Residual-Control   Outer-Iter.   Inner-Iter.     Column Row Layer    Maximum-Head-Change  Column Row Layer    Maximum-Flux-Residual          L2-NORM 
          0                 1           2             7    6     1      -0.2244574569E+00       7    6    1        -0.1225414218E+02      0.1236748575E+02
          0                 2           2             7    6     1       0.2463545636E+00       7    6    1         0.1356000856E+02      0.1356461218E+02
          0                 3           2             7    6     1      -0.2704899710E+00       7    6    1        -0.1502752665E+02      0.1502828953E+02
     PET DIFF ERROR     6    7   -0.5900802626E-08    0.5999999608E-07
     PET DIFF ERROR     6    8   -0.5900802628E-08    0.5999999608E-07
          0                 4           2             7    6     1       0.2673362325E+00       7    6    1         0.1501206702E+02      0.1501236547E+02
          0                 5           2             7    6     1      -0.2572702319E+00       7    6    1        -0.1455556009E+02      0.1455573638E+02
          0                 6           2             7    6     1       0.2519357054E+00       7    6    1         0.1440719049E+02      0.1440738146E+02
          0                 7           2             7    6     1      -0.6398905383E-02       7    6    1        -0.3700666726E+00      0.3752614193E+00
          0                 8           2             7    6     1      -0.1314169272E-02       7    6    1        -0.7593495204E-01      0.7662797975E-01
          0                 9           2             7    6     1      -0.2701767450E-03       7    6    1        -0.1559833764E-01      0.1570661683E-01
          0                10           1             7    6     1      -0.5559891670E-04       7    6    1        -0.3207447026E-02      0.3245399624E-02
                                                   Max.-Head-Change                         Max.-Flux-Residual
  Residual-Control   Outer-Iter.   Inner-Iter.     Column Row Layer    Maximum-Head-Change  Column Row Layer    Maximum-Flux-Residual          L2-NORM 
          0                11           1             7    6     1      -0.1145186387E-04       7    6    1        -0.6601643684E-03      0.6895812798E-03
          0                12           1             7    6     1      -0.2360751611E-05       7    6    1        -0.1359972891E-03      0.1621010678E-03

    ------------------------------------------------
       NWT REQUIRED           12 OUTER ITERATIONS 
       AND A TOTAL OF         21 INNER ITERATIONS.
    ------------------------------------------------

 NO OUTPUT CONTROL FOR STRESS PERIOD   20   TIME STEP   25
 
 SOLVING FOR HEAD 
                                                   Max.-Head-Change                         Max.-Flux-Residual
  Residual-Control   Outer-Iter.   Inner-Iter.     Column Row Layer    Maximum-Head-Change  Column Row Layer    Maximum-Flux-Residual          L2-NORM 
          0                 1           2             7    6     1      -0.2511779447E+00       7    6    1        -0.1371159903E+02      0.1381091097E+02
          0                 2           2             7    6     1       0.2750631530E+00       7    6    1         0.1516504176E+02      0.1517037307E+02
          0                 3           2             7    6     1      -0.2066662899E+00       7    6    1        -0.1148212864E+02      0.1148314023E+02
          0                 4           2             7    6     1       0.1973106586E+00       7    6    1         0.1106184003E+02      0.1106210787E+02
          0                 5           2             7    6     1      -0.7422222764E-02       7    6    1        -0.4212153427E+00      0.4255781323E+00
          0                 6           2             7    6     1      -0.1417437842E-02       7    6    1        -0.8036560203E-01      0.8144210802E-01
          0                 7           2             7    6     1      -0.2710151697E-03       7    6    1        -0.1535272731E-01      0.1612232714E-01
          0                 8           1             7    6     1      -0.5187532835E-04       7    6    1        -0.2936355576E-02      0.3648710888E-02
          0                 9           1             7    6     1      -0.9939382505E-05       7    6    1        -0.5622070769E-03      0.1119776222E-02

    ------------------------------------------------
       NWT REQUIRED            9 OUTER ITERATIONS 
       AND A TOTAL OF         16 INNER ITERATIONS.
    ------------------------------------------------

 NO OUTPUT CONTROL FOR STRESS PERIOD   20   TIME STEP   26
 
 SOLVING FOR HEAD 
                                                   Max.-Head-Change                         Max.-Flux-Residual
  Residual-Control   Outer-Iter.   Inner-Iter.     Column Row Layer    Maximum-Head-Change  Column Row Layer    Maximum-Flux-Residual          L2-NORM 
          0                 1           2             7    6     1      -0.1905112558E+00       7    6    1        -0.1040258471E+02      0.1053047790E+02
          0                 2           2             7    6     1       0.2093562933E+00       7    6    1         0.1152328102E+02      0.1152868595E+02
          0                 3           2             7    6     1      -0.1111353759E-01       7    6    1        -0.6190901459E+00      0.6360332075E+00
          0                 4           2             7    6     1      -0.1958015523E-02       7    6    1        -0.1089673556E+00      0.1220697555E+00
          0                 5           2             7    6     1      -0.3454407129E-03       7    6    1        -0.1920757406E-01      0.3087199337E-01
          0                 6           1             8    2     1       0.9421755584E-04       7    6    1        -0.3390163936E-02      0.1131253411E-01
          0                 7           1             8    2     1       0.4234466477E-04       8    2    1         0.1099735797E-02      0.4866596352E-02
          0                 8           1             8    2     1       0.1903115738E-04       8    2    1         0.4942596532E-03      0.2168411782E-02
          0                 9           1             4   13     1      -0.1170336265E-04       4   13    1        -0.6827775369E-03      0.1512844243E-02
          0                10           1             8    2     1       0.3844121698E-05       8    2    1         0.9983611450E-04      0.4412848091E-03

    ------------------------------------------------
       NWT REQUIRED           10 OUTER ITERATIONS 
       AND A TOTAL OF         15 INNER ITERATIONS.
    ------------------------------------------------

 NO OUTPUT CONTROL FOR STRESS PERIOD   20   TIME STEP   27
 
 SOLVING FOR HEAD 
                                                   Max.-Head-Change                         Max.-Flux-Residual
  Residual-Control   Outer-Iter.   Inner-Iter.     Column Row Layer    Maximum-Head-Change  Column Row Layer    Maximum-Flux-Residual          L2-NORM 
          0                 1           2             7    6     1      -0.2875175657E+00       7    6    1        -0.1569373693E+02      0.1577743927E+02
          0                 2           2             7    6     1       0.3146666255E+00       7    6    1         0.1734885119E+02      0.1735828634E+02
          0                 3           2             7    6     1      -0.1062932479E+00       7    6    1        -0.5906743900E+01      0.5909002713E+01
          0                 4           2             7    6     1       0.8451072510E-01       7    6    1         0.4737907339E+01      0.4738260829E+01
          0                 5           2             7    6     1      -0.1886312038E-02       7    6    1        -0.1072991881E+00      0.1127037224E+00
          0                 6           2             7    6     1      -0.3590869404E-03       7    6    1        -0.2040435614E-01      0.2339211636E-01
          0                 7           1             7    6     1      -0.6845079463E-04       7    6    1        -0.3885786632E-02      0.6222064941E-02
          0                 8           1             8    2     1       0.1902206109E-04       7    6    1        -0.7409900118E-03      0.2284005993E-02
          0                 9           1             8    2     1       0.8549163874E-05       8    2    1         0.2220311827E-03      0.9762954342E-03

    ------------------------------------------------
       NWT REQUIRED            9 OUTER ITERATIONS 
       AND A TOTAL OF         15 INNER ITERATIONS.
    ------------------------------------------------

 NO OUTPUT CONTROL FOR STRESS PERIOD   20   TIME STEP   28
 
 SOLVING FOR HEAD 
                                                   Max.-Head-Change                         Max.-Flux-Residual
  Residual-Control   Outer-Iter.   Inner-Iter.     Column Row Layer    Maximum-Head-Change  Column Row Layer    Maximum-Flux-Residual          L2-NORM 
          0                 1           2             7    6     1      -0.8543366044E-01       7    6    1        -0.4671126450E+01      0.4939272952E+01
          0                 2           2             7    6     1       0.9495037418E-01       7    6    1         0.5225236310E+01      0.5237265912E+01
          0                 3           2             7    6     1      -0.3317723761E-02       7    6    1        -0.1852676229E+00      0.2278507029E+00
          0                 4           2             7    6     1      -0.5823410563E-03       7    6    1        -0.3248483949E-01      0.6352626303E-01
          0                 5           2             8    2     1       0.2094314798E-03       7    6    1        -0.5704953749E-02      0.2479704328E-01
          0                 6           1             8    2     1       0.9412587689E-04       8    2    1         0.2444547754E-02      0.1082014043E-01
          0                 7           1             8    2     1       0.4230344697E-04       8    2    1         0.1098665631E-02      0.4820277673E-02
          0                 8           1             8    2     1       0.1901262665E-04       8    2    1         0.4937785240E-03      0.2154884458E-02
          0                 9           1             8    2     1       0.8544922241E-05       8    2    1         0.2219210466E-03      0.9640223162E-03

    ------------------------------------------------
       NWT REQUIRED            9 OUTER ITERATIONS 
       AND A TOTAL OF         14 INNER ITERATIONS.
    ------------------------------------------------

 NO OUTPUT CONTROL FOR STRESS PERIOD   20   TIME STEP   29
 
 SOLVING FOR HEAD 
                                                   Max.-Head-Change                         Max.-Flux-Residual
  Residual-Control   Outer-Iter.   Inner-Iter.     Column Row Layer    Maximum-Head-Change  Column Row Layer    Maximum-Flux-Residual          L2-NORM 
          0                 1           2             7    6     1      -0.2888120031E+00       7    6    1        -0.1576429002E+02      0.1584466329E+02
          0                 2           2             7    6     1       0.3161871304E+00       7    6    1         0.1743273234E+02      0.1743626469E+02
          0                 3           2             7    6     1      -0.1803201628E-01       7    6    1        -0.1003888166E+01      0.1016153058E+01
          0                 4           2             7    6     1      -0.3179828842E-02       7    6    1        -0.1768633171E+00      0.1852699786E+00
          0                 5           2             7    6     1      -0.5614828756E-03       7    6    1        -0.3120327009E-01      0.3943882485E-01
          0                 6           1             7    6     1      -0.9926188138E-04       7    6    1        -0.5512039016E-02      0.1209691350E-01
          0                 7           1             8    2     1       0.4228249767E-04       8    2    1         0.1098121675E-02      0.4912352054E-02
          0                 8           1             8    2     1       0.1900320872E-04       8    2    1         0.4935339858E-03      0.2160423278E-02
          0                 9           1             8    2     1       0.8540688612E-05       8    2    1         0.2218111136E-03      0.9639635437E-03

    ------------------------------------------------
       NWT REQUIRED            9 OUTER ITERATIONS 
       AND A TOTAL OF         14 INNER ITERATIONS.
    ------------------------------------------------

 NO OUTPUT CONTROL FOR STRESS PERIOD   20   TIME STEP   30



 STREAM LISTING     PERIOD     20   STEP       30

 LAYER ROW COL. STREAM  RCH.  FLOW INTO     FLOW TO   FLOW OUT OF   OVRLND.     DIRECT     STREAM       STREAM     STREAM     STREAM   STREAMBED  STREAMBED
                SEG.NO.  NO.  STRM. RCH.    AQUIFER    STRM. RCH.    RUNOFF     PRECIP       ET          HEAD       DEPTH      WIDTH   CONDCTNC.   GRADIENT

   1    1    1     1     1    1.4000E+01  1.7986E-01   1.3820E+01  0.000E+00  0.000E+00  0.000E+00  1.09404E+03  9.902E-01  1.002E+01  4.508E-02  1.330E+00
   1    2    2     1     2    1.3820E+01  2.7716E-01   1.3543E+01  0.000E+00  0.000E+00  0.000E+00  1.08904E+03  9.855E-01  9.935E+00  6.954E-02  1.328E+00
   1    3    3     1     3    1.3543E+01  2.3502E-01   1.3308E+01  0.000E+00  0.000E+00  0.000E+00  1.08340E+03  9.801E-01  9.842E+00  5.905E-02  1.327E+00
   1    3    4     1     4    1.3308E+01  2.1532E-01   1.3093E+01  0.000E+00  0.000E+00  0.000E+00  1.07838E+03  9.753E-01  9.759E+00  5.416E-02  1.325E+00
   1    4    5     2     1    1.1093E+01  0.0000E+00   1.1093E+01  0.000E+00  0.000E+00  0.000E+00  1.07268E+03  7.416E-01  1.200E+01  0.000E+00  1.247E+00
   1    5    6     2     2    1.1093E+01  0.0000E+00   1.1093E+01  0.000E+00  0.000E+00  0.000E+00  1.06725E+03  7.416E-01  1.200E+01  0.000E+00  1.247E+00
   1    6    6     2     3    1.1093E+01  0.0000E+00   1.1093E+01  0.000E+00  0.000E+00  0.000E+00  1.06253E+03  7.416E-01  1.200E+01  0.000E+00  1.247E+00
   1    7    6     2     4    1.1093E+01  0.0000E+00   1.1093E+01  0.000E+00  0.000E+00  0.000E+00  1.05782E+03  7.416E-01  1.200E+01  0.000E+00  1.247E+00
   1    8    6     2     5    1.1093E+01  0.0000E+00   1.1093E+01  0.000E+00  0.000E+00  0.000E+00  1.05310E+03  7.416E-01  1.200E+01  0.000E+00  1.247E+00
   1    3    5     3     1    2.0000E+00  2.8252E-01   1.7175E+00  0.000E+00  0.000E+00  0.000E+00  1.07555E+03  1.909E+00  9.636E+00  7.227E-02  1.955E+00
   1    3    6     3     2    1.7175E+00  2.4905E-01   1.4684E+00  0.000E+00  0.000E+00  0.000E+00  1.07264E+03  1.727E+00  8.909E+00  6.682E-02  1.864E+00
   1    3    7     3     3    1.4684E+00  1.9718E-01   1.2712E+00  0.000E+00  0.000E+00  0.000E+00  1.06987E+03  1.555E+00  8.218E+00  5.547E-02  1.777E+00
   1    4    8     3     4    1.2712E+00  2.2567E-01   1.0456E+00  0.000E+00  0.000E+00  0.000E+00  1.06682E+03  1.364E+00  7.455E+00  6.709E-02  1.682E+00
   1    5    8     3     5    1.0456E+00  1.5790E-01   8.8768E-01  0.000E+00  0.000E+00  0.000E+00  1.06362E+03  1.164E+00  6.655E+00  4.991E-02  1.582E+00
   1    6    8     3     6    8.8768E-01  5.5980E-02   8.3170E-01  0.000E+00  0.000E+00  0.000E+00  1.06158E+03  1.036E+00  6.145E+00  1.844E-02  1.518E+00
   1    5   10     4     1    1.0000E+01  0.0000E+00   1.0000E+01  0.000E+00  0.000E+00  0.000E+00  1.07837E+03  6.385E-01  1.000E+01  0.000E+00  1.213E+00
   1    5    9     4     2    1.0000E+01  0.0000E+00   1.0000E+01  0.000E+00  0.000E+00  0.000E+00  1.07155E+03  6.385E-01  1.000E+01  0.000E+00  1.213E+00
   1    6    8     4     3    1.0000E+01  0.0000E+00   1.0000E+01  0.000E+00  0.000E+00  0.000E+00  1.06382E+03  6.385E-01  1.000E+01  0.000E+00  1.213E+00
   1    6    8     5     1    1.0832E+01  2.3262E-01   1.0599E+01  0.000E+00  0.000E+00  0.000E+00  1.05869E+03  6.881E-01  1.577E+01  6.307E-02  1.229E+00
   1    7    7     5     2    1.0599E+01  2.8607E-01   1.0313E+01  0.000E+00  0.000E+00  0.000E+00  1.05418E+03  6.822E-01  1.554E+01  7.769E-02  1.227E+00
   1    8    7     5     3    1.0313E+01  1.9716E-01   1.0116E+01  0.000E+00  0.000E+00  0.000E+00  1.04993E+03  6.766E-01  1.532E+01  5.363E-02  1.226E+00
   1    8    6     5     4    1.0116E+01  1.3929E-01   9.9766E+00  0.000E+00  0.000E+00  0.000E+00  1.04692E+03  6.727E-01  1.517E+01  3.792E-02  1.224E+00
   1    9    6     6     1    2.1069E+01  0.0000E+00   2.1069E+01  0.000E+00  0.000E+00  0.000E+00  1.04383E+03  1.102E+00  1.200E+01  0.000E+00  1.367E+00
   1   10    7     6     2    2.1069E+01  0.0000E+00   2.1069E+01  0.000E+00  0.000E+00  0.000E+00  1.03928E+03  1.102E+00  1.200E+01  0.000E+00  1.367E+00
   1   11    7     6     3    2.1069E+01  0.0000E+00   2.1069E+01  0.000E+00  0.000E+00  0.000E+00  1.03474E+03  1.102E+00  1.200E+01  0.000E+00  1.367E+00
   1   12    7     6     4    2.1069E+01  0.0000E+00   2.1069E+01  0.000E+00  0.000E+00  0.000E+00  1.03019E+03  1.102E+00  1.200E+01  0.000E+00  1.367E+00
   1   13    7     6     5    2.1069E+01  0.0000E+00   2.1069E+01  0.000E+00  0.000E+00  0.000E+00  1.02701E+03  1.102E+00  1.200E+01  0.000E+00  1.454E-01
   1   14    9     7     1    1.5000E+02  1.2772E+00   1.4872E+02  0.000E+00  0.000E+00  0.000E+00  1.03987E+03  2.288E+00  5.530E+01  5.593E-01  7.612E-01
   1   13    8     7     2    1.4872E+02  1.9012E+00   1.4682E+02  0.000E+00  0.000E+00  0.000E+00  1.03478E+03  2.279E+00  5.526E+01  6.148E-01  1.031E+00
   1   13    7     7     3    1.4682E+02  1.7390E+00   1.4508E+02  0.000E+00  0.000E+00  0.000E+00  1.02969E+03  2.270E+00  5.521E+01  5.584E-01  1.038E+00
   1   13    6     8     1    1.6615E+02  1.2900E+00   1.6486E+02  0.000E+00  0.000E+00  0.000E+00  1.02480E+03  2.923E+00  4.238E+01  4.319E-01  9.957E-01
   1   13    5     8     2    1.6486E+02  5.3288E-01   1.6433E+02  0.000E+00  0.000E+00  0.000E+00  1.01854E+03  2.917E+00  4.229E+01  4.310E-01  4.122E-01
   1   13    4     8     3    1.6433E+02 -8.8962E-01   1.6522E+02  0.000E+00  0.000E+00  0.000E+00  1.01229E+03  2.918E+00  4.231E+01  4.311E+00 -6.878E-02
   1   13    3     8     4    1.6522E+02 -2.4432E+00   1.6766E+02  0.000E+00  0.000E+00  0.000E+00  1.00605E+03  2.929E+00  4.247E+01  4.328E+00 -1.882E-01
   1   13    2     8     5    1.6766E+02 -1.2937E+00   1.6896E+02  0.000E+00  0.000E+00  0.000E+00  9.99816E+02  2.941E+00  4.265E+01  4.346E+00 -9.923E-02
   1   13    1     8     6    1.6896E+02 -8.9672E-01   1.6985E+02  0.000E+00  0.000E+00  0.000E+00  9.94823E+02  2.948E+00  4.275E+01  2.614E+00 -1.144E-01
   1    6    8     9     1    1.1823E-06  0.0000E+00   1.1823E-06  0.000E+00  0.000E+00  0.000E+00  1.07850E+03  3.760E-05  4.000E+00  0.000E+00  1.000E+00





UNSATURATED ZONE PACKAGE VOLUMETRIC BUDGET FOR  TIME STEP    30 STRESS PERIOD   20
  ------------------------------------------------------------------------------



     CUMULATIVE VOLUMES      L**3       RATES FOR THIS TIME STEP      L**3/T
     ------------------                 ------------------------

           IN:                                      IN:
           ---                                      ---
        INFILTRATION =    76195916.6921          INFILTRATION =           0.8475

          OUT:                                     OUT:
          ----                                     ----
              UZF ET =   604115941.8603                UZF ET =           3.8425
        UZF RECHARGE =  1215592185.3315          UZF RECHARGE =          20.2453

            IN - OUT = -1743512210.4997              IN - OUT =         -23.2403

          STORAGE:                                 STORAGE:
          --------                                 --------
      STORAGE CHANGE = -1743502479.6674        STORAGE CHANGE =         -23.2403

 PERCENT DISCREPANCY IS DIFFERENCE BETWEEN IN-OUT MINUS CHANGE IN STORAGE
 DIVIDED BY THE AVERAGE OF IN AND OUT TIMES 100

 PERCENT DISCREPANCY =          -0.00     PERCENT DISCREPANCY =           0.00






1
  VOLUMETRIC BUDGET FOR ENTIRE MODEL AT END OF TIME STEP   30, STRESS PERIOD  20
  ------------------------------------------------------------------------------

     CUMULATIVE VOLUMES      L**3       RATES FOR THIS TIME STEP      L**3/T
     ------------------                 ------------------------

           IN:                                      IN:
           ---                                      ---
             STORAGE =    53898240.0000               STORAGE =           2.5564
       CONSTANT HEAD =           0.0000         CONSTANT HEAD =           0.0000
               WELLS =           0.0000                 WELLS =           0.0000
     HEAD DEP BOUNDS =    14894397.0000       HEAD DEP BOUNDS =           0.2818
      STREAM LEAKAGE =   527890880.0000        STREAM LEAKAGE =           9.6711
        UZF RECHARGE =  1215591168.0000          UZF RECHARGE =          20.2454
               GW ET =           0.0000                 GW ET =           0.0000
     SURFACE LEAKAGE =           0.0000       SURFACE LEAKAGE =           0.0000

            TOTAL IN =  1812274688.0000              TOTAL IN =          32.7546

          OUT:                                     OUT:
          ----                                     ----
             STORAGE =  1233815040.0000               STORAGE =          18.3720
       CONSTANT HEAD =           0.0000         CONSTANT HEAD =           0.0000
               WELLS =     1025306.1875                 WELLS =           0.0000
     HEAD DEP BOUNDS =    15124971.0000       HEAD DEP BOUNDS =           0.2723
      STREAM LEAKAGE =   449142144.0000        STREAM LEAKAGE =           5.5232
        UZF RECHARGE =           0.0000          UZF RECHARGE =           0.0000
               GW ET =   113043680.0000                 GW ET =           8.5844
     SURFACE LEAKAGE =           0.0000       SURFACE LEAKAGE =           0.0000

           TOTAL OUT =  1812151168.0000             TOTAL OUT =          32.7519

            IN - OUT =      123520.0000              IN - OUT =       2.6855E-03

 PERCENT DISCREPANCY =           0.01     PERCENT DISCREPANCY =           0.01






         TIME SUMMARY AT END OF TIME STEP   30 IN STRESS PERIOD   20
                    SECONDS     MINUTES      HOURS       DAYS        YEARS
                    -----------------------------------------------------------
   TIME STEP LENGTH  87600.      1460.0      24.333      1.0139     2.77588E-03
 STRESS PERIOD TIME 2.62800E+06  43800.      730.00      30.417     8.32763E-02
         TOTAL TIME 5.25600E+07 8.76000E+05  14600.      608.33      1.6655    
1
1
                            STRESS PERIOD NO.   21, LENGTH =   2628000.    
                            -----------------------------------------------

                              NUMBER OF TIME STEPS =    30

                               MULTIPLIER FOR DELT =     1.000

                            INITIAL TIME STEP SIZE =   87600.00    

 WELL NO.  LAYER   ROW   COL   STRESS RATE         
 --------------------------------------------------
      1      1      6      4       0.000    
      2      1      6      7       0.000    
      3      1      7      4       0.000    
      4      1      7      5       0.000    
      5      1      8      4       0.000    
      6      1      8      5       0.000    
      7      1      9      4       0.000    
      8      1      9      5       0.000    
      9      1     10      4       0.000    
     10      1     10      5       0.000    

     10 WELLS

 REUSING NON-PARAMETER GHB CELLS FROM LAST STRESS PERIOD

      2 GHB CELLS

 REUSING STREAM SEGMENT DATA FROM LAST STRESS PERIOD



            AREAL INFILTRATION RATE
 READING ON UNIT   19 WITH FORMAT: (10F4.0)            

            1           2           3           4           5           6           7           8           9          10
 ........................................................................................................................
   1   1.0000E-10  2.0000E-10   0.000       0.000       0.000       0.000       0.000       0.000       0.000       0.000    
   2   2.0000E-10  1.0000E-10  2.0000E-10   0.000       0.000      8.0000E-10  8.0000E-10  5.0000E-10   0.000       0.000    
   3    0.000      5.0000E-10  1.0000E-10  1.0000E-10  8.0000E-10  8.0000E-10  5.0000E-10  5.0000E-10   0.000       0.000    
   4   8.0000E-10  5.0000E-10  1.0000E-10  1.0000E-10  1.0000E-10  1.0000E-10  1.0000E-10  1.0000E-10  2.0000E-10   0.000    
   5   8.0000E-10  5.0000E-10  1.0000E-10  1.0000E-10  1.0000E-10  1.0000E-10  1.0000E-10  1.0000E-10  1.0000E-10  1.0000E-10
   6   8.0000E-10  5.0000E-10  5.0000E-10  2.0000E-10  2.0000E-10  1.0000E-10  1.0000E-10  1.0000E-10  1.0000E-10  5.0000E-10
   7   8.0000E-10  5.0000E-10  5.0000E-10  2.0000E-10  2.0000E-10  1.0000E-10  1.0000E-10  2.0000E-10  2.0000E-10   0.000    
   8    0.000      5.0000E-10  5.0000E-10  2.0000E-10  2.0000E-10  1.0000E-10  1.0000E-10  2.0000E-10  5.0000E-10   0.000    
   9    0.000      5.0000E-10  5.0000E-10  2.0000E-10  2.0000E-10  1.0000E-10  1.0000E-10  2.0000E-10  5.0000E-10   0.000    
  10    0.000      5.0000E-10  5.0000E-10  2.0000E-10  2.0000E-10  1.0000E-10  1.0000E-10  2.0000E-10  5.0000E-10  8.0000E-10
  11    0.000      1.0000E-10  1.0000E-10  1.0000E-10  1.0000E-10  1.0000E-10  1.0000E-10  2.0000E-10  5.0000E-10   0.000    
  12   1.0000E-10  1.0000E-10  1.0000E-10  1.0000E-10  1.0000E-10  1.0000E-10  1.0000E-10  1.0000E-10  2.0000E-10   0.000    
  13   1.0000E-10  1.0000E-10  2.0000E-10  2.0000E-10  2.0000E-10  2.0000E-10  2.0000E-10  1.0000E-10  1.0000E-10   0.000    
  14    0.000      2.0000E-10  5.0000E-10  5.0000E-10  5.0000E-10  5.0000E-10  5.0000E-10  2.0000E-10  1.0000E-10   0.000    
  15    0.000       0.000      8.0000E-10  8.0000E-10  8.0000E-10  8.0000E-10   0.000       0.000       0.000       0.000    

                  ET RATE =  8.500000E-08

 USING ET EXTINCTION DEPTH FROM PREVIOUS STRESS PERIOD. CURRENT PERIOD IS:      21

 USING EXTINCTION WATER CONTENT FROM PREVIOUS STRESS PERIOD. CURRENT PERIOD IS:      21
 
 SOLVING FOR HEAD 
                                                   Max.-Head-Change                         Max.-Flux-Residual
  Residual-Control   Outer-Iter.   Inner-Iter.     Column Row Layer    Maximum-Head-Change  Column Row Layer    Maximum-Flux-Residual          L2-NORM 
          0                 1           2             7    6     1      -0.2888206144E+00       7    6    1        -0.1576477752E+02      0.1596901092E+02
          0                 2           2             7    6     1       0.3161874985E+00       7    6    1         0.1743276413E+02      0.1743671781E+02
          0                 3           2             7    6     1      -0.2647154016E+00       7    6    1        -0.1470705564E+02      0.1470790135E+02
     PET DIFF ERROR     6    7   -0.5523704697E-08    0.8500000703E-07
     PET DIFF ERROR     6    8   -0.5523704694E-08    0.8500000703E-07
          0                 4           2             7    6     1       0.2554000211E+00       7    6    1         0.1434184852E+02      0.1434213760E+02
          0                 5           2             7    6     1      -0.2471816821E+00       7    6    1        -0.1398482278E+02      0.1398499175E+02
     PET DIFF ERROR     6    7   -0.9676216662E-08    0.8500000703E-07
     PET DIFF ERROR     6    8   -0.9676216663E-08    0.8500000703E-07
          0                 6           2             7    6     1       0.2421564505E+00       7    6    1         0.1384800816E+02      0.1384821167E+02
          0                 7           2             7    6     1      -0.2292610746E+00       7    6    1        -0.1320895424E+02      0.1320908908E+02
     PET DIFF ERROR     6    7   -0.2414868426E-08    0.8500000703E-07
     PET DIFF ERROR     6    8   -0.2414868434E-08    0.8500000703E-07
          0                 8           2             7    6     1       0.2248755826E+00       7    6    1         0.1307427286E+02      0.1307443308E+02
          0                 9           2             7    6     1      -0.2196013767E+00       7    6    1        -0.1288430533E+02      0.1288445075E+02
          0                10           2             7    6     1       0.2154889185E+00       7    6    1         0.1275773966E+02      0.1275787855E+02
                                                   Max.-Head-Change                         Max.-Flux-Residual
  Residual-Control   Outer-Iter.   Inner-Iter.     Column Row Layer    Maximum-Head-Change  Column Row Layer    Maximum-Flux-Residual          L2-NORM 
          0                11           2             7    6     1       0.7203975218E-03       7    6    1         0.4125322210E-01      0.7137511219E-01
          0                12           2             7    6     1       0.1697562486E-03       7    6    1         0.9734675887E-02      0.1636334126E-01
          0                13           1             7    6     1       0.3994471025E-04       7    6    1         0.2293494051E-02      0.3758263329E-02
          0                14           1             7    6     1       0.9387243771E-05       7    6    1         0.5395852122E-03      0.8649333388E-03

    ------------------------------------------------
       NWT REQUIRED           14 OUTER ITERATIONS 
       AND A TOTAL OF         26 INNER ITERATIONS.
    ------------------------------------------------

 NO OUTPUT CONTROL FOR STRESS PERIOD   21   TIME STEP    1
 
 SOLVING FOR HEAD 
                                                   Max.-Head-Change                         Max.-Flux-Residual
  Residual-Control   Outer-Iter.   Inner-Iter.     Column Row Layer    Maximum-Head-Change  Column Row Layer    Maximum-Flux-Residual          L2-NORM 
          0                 1           2             7    6     1      -0.2290139443E+00       7    6    1        -0.1250266933E+02      0.1275494051E+02
          0                 2           2             7    6     1       0.2514083833E+00       7    6    1         0.1383829785E+02      0.1384298812E+02
          0                 3           2             7    6     1      -0.2227432601E+00       7    6    1        -0.1237532359E+02      0.1237625351E+02
          0                 4           2             7    6     1       0.2094039878E+00       7    6    1         0.1173989746E+02      0.1174017135E+02
          0                 5           2             7    6     1      -0.9644412895E-02       7    6    1        -0.5470039831E+00      0.5506941761E+00
          0                 6           2             7    6     1      -0.1843287937E-02       7    6    1        -0.1044527283E+00      0.1052671466E+00
          0                 7           2             7    6     1      -0.3527021810E-03       7    6    1        -0.1996987505E-01      0.2055542761E-01
          0                 8           1             7    6     1      -0.6755870088E-04       7    6    1        -0.3822235709E-02      0.4387308746E-02
          0                 9           1             7    6     1      -0.1295292272E-04       7    6    1        -0.7323119844E-03      0.1210314230E-02
          0                10           1             8    2     1       0.3834748537E-05       7    6    1        -0.1404341308E-03      0.4534485840E-03

    ------------------------------------------------
       NWT REQUIRED           10 OUTER ITERATIONS 
       AND A TOTAL OF         17 INNER ITERATIONS.
    ------------------------------------------------

 NO OUTPUT CONTROL FOR STRESS PERIOD   21   TIME STEP    2
 
 SOLVING FOR HEAD 
                                                   Max.-Head-Change                         Max.-Flux-Residual
  Residual-Control   Outer-Iter.   Inner-Iter.     Column Row Layer    Maximum-Head-Change  Column Row Layer    Maximum-Flux-Residual          L2-NORM 
          0                 1           2             7    6     1      -0.2077170205E+00       7    6    1        -0.1134077049E+02      0.1159577440E+02
          0                 2           2             7    6     1       0.2286080826E+00       7    6    1         0.1258318528E+02      0.1258839240E+02
          0                 3           2             7    6     1      -0.2561903397E+00       7    6    1        -0.1423312816E+02      0.1423389834E+02
     PET DIFF ERROR     6    7   -0.5119166317E-08    0.8500000703E-07
     PET DIFF ERROR     6    8   -0.5119166313E-08    0.8500000703E-07
          0                 4           2             7    6     1       0.2536151264E+00       7    6    1         0.1424164892E+02      0.1424193880E+02
          0                 5           2             7    6     1      -0.2446663586E+00       7    6    1        -0.1384252845E+02      0.1384269684E+02
     PET DIFF ERROR     6    7   -0.9838946439E-08    0.8500000703E-07
     PET DIFF ERROR     6    8   -0.9838946440E-08    0.8500000703E-07
          0                 6           2             7    6     1       0.2396361661E+00       7    6    1         0.1370390720E+02      0.1370411131E+02
          0                 7           2             7    6     1      -0.2266068928E+00       7    6    1        -0.1305604512E+02      0.1305617921E+02
     PET DIFF ERROR     6    7   -0.2013947218E-08    0.8500000703E-07
     PET DIFF ERROR     6    8   -0.2013947227E-08    0.8500000703E-07
          0                 8           2             7    6     1       0.2222500555E+00       7    6    1         0.1292163741E+02      0.1292179518E+02
          0                 9           2             7    6     1      -0.2173774707E+00       7    6    1        -0.1275382933E+02      0.1275397287E+02
          0                10           2             7    6     1       0.2133175891E+00       7    6    1         0.1262920256E+02      0.1262934014E+02
                                                   Max.-Head-Change                         Max.-Flux-Residual
  Residual-Control   Outer-Iter.   Inner-Iter.     Column Row Layer    Maximum-Head-Change  Column Row Layer    Maximum-Flux-Residual          L2-NORM 
          0                11           2             7    6     1       0.8317170445E-03       7    6    1         0.4785727017E-01      0.7492862346E-01
          0                12           2             7    6     1       0.1950407267E-03       7    6    1         0.1123370792E-01      0.1722550278E-01
          0                13           1             7    6     1       0.4569144128E-04       7    6    1         0.2633982752E-02      0.3965780449E-02
          0                14           1             7    6     1       0.1069420890E-04       7    6    1         0.6169739593E-03      0.9145340204E-03
          0                15           1             7    6     1       0.2500962111E-05       7    6    1         0.1443872632E-03      0.2115407167E-03

    ------------------------------------------------
       NWT REQUIRED           15 OUTER ITERATIONS 
       AND A TOTAL OF         27 INNER ITERATIONS.
    ------------------------------------------------

 NO OUTPUT CONTROL FOR STRESS PERIOD   21   TIME STEP    3
 
 SOLVING FOR HEAD 
                                                   Max.-Head-Change                         Max.-Flux-Residual
  Residual-Control   Outer-Iter.   Inner-Iter.     Column Row Layer    Maximum-Head-Change  Column Row Layer    Maximum-Flux-Residual          L2-NORM 
          0                 1           2             7    6     1      -0.2264098954E+00       7    6    1        -0.1236040833E+02      0.1257759940E+02
          0                 2           2             7    6     1       0.2485456059E+00       7    6    1         0.1370296646E+02      0.1370769017E+02
          0                 3           2             7    6     1      -0.2221598732E+00       7    6    1        -0.1234266661E+02      0.1234353976E+02
          0                 4           2             7    6     1       0.2134151391E+00       7    6    1         0.1196479817E+02      0.1196507492E+02
          0                 5           2             7    6     1      -0.8829804740E-02       7    6    1        -0.5009464240E+00      0.5050953909E+00
          0                 6           2             7    6     1      -0.1686934279E-02       7    6    1        -0.9561859211E-01      0.9654148503E-01
          0                 7           2             7    6     1      -0.3226663863E-03       7    6    1        -0.1827389290E-01      0.1891577285E-01
          0                 8           1             7    6     1      -0.6178419512E-04       7    6    1        -0.3496366676E-02      0.4105117429E-02
          0                 9           1             7    6     1      -0.1184197585E-04       7    6    1        -0.6696599007E-03      0.1172137293E-02
          0                10           1             8    2     1       0.3831034388E-05       7    6    1        -0.1283783586E-03      0.4491708118E-03

    ------------------------------------------------
       NWT REQUIRED           10 OUTER ITERATIONS 
       AND A TOTAL OF         17 INNER ITERATIONS.
    ------------------------------------------------

 NO OUTPUT CONTROL FOR STRESS PERIOD   21   TIME STEP    4
 
 SOLVING FOR HEAD 
                                                   Max.-Head-Change                         Max.-Flux-Residual
  Residual-Control   Outer-Iter.   Inner-Iter.     Column Row Layer    Maximum-Head-Change  Column Row Layer    Maximum-Flux-Residual          L2-NORM 
          0                 1           2             7    6     1      -0.2076166097E+00       7    6    1        -0.1133526126E+02      0.1155492622E+02
          0                 2           2             7    6     1       0.2285976636E+00       7    6    1         0.1258263470E+02      0.1258767570E+02
          0                 3           2             7    6     1      -0.2357460450E+00       7    6    1        -0.1309747066E+02      0.1309830441E+02
     PET DIFF ERROR     6    7   -0.3195352410E-08    0.8500000703E-07
     PET DIFF ERROR     6    8   -0.3195352419E-08    0.8500000703E-07
          0                 4           2             7    6     1       0.2321257531E+00       7    6    1         0.1301373713E+02      0.1301401184E+02
          0                 5           2             7    6     1      -0.2256271164E+00       7    6    1        -0.1276555440E+02      0.1276574496E+02
          0                 6           2             7    6     1       0.2211089069E+00       7    6    1         0.1262384190E+02      0.1262400113E+02
          0                 7           2             7    6     1      -0.5379116076E-02       7    6    1        -0.3113529549E+00      0.3173568928E+00
          0                 8           2             7    6     1      -0.1103581011E-02       7    6    1        -0.6381729059E-01      0.6464632129E-01
          0                 9           2             7    6     1      -0.2266619115E-03       7    6    1        -0.1309573745E-01      0.1322860716E-01
          0                10           1             7    6     1      -0.4660179119E-04       7    6    1        -0.2690268386E-02      0.2735585592E-02
          0                11           1             7    6     1      -0.9590582981E-05       7    6    1        -0.5532276120E-03      0.5873617043E-03

    ------------------------------------------------
       NWT REQUIRED           11 OUTER ITERATIONS 
       AND A TOTAL OF         20 INNER ITERATIONS.
    ------------------------------------------------

 NO OUTPUT CONTROL FOR STRESS PERIOD   21   TIME STEP    5
 
 SOLVING FOR HEAD 
                                                   Max.-Head-Change                         Max.-Flux-Residual
  Residual-Control   Outer-Iter.   Inner-Iter.     Column Row Layer    Maximum-Head-Change  Column Row Layer    Maximum-Flux-Residual          L2-NORM 
          0                 1           2             7    6     1      -0.2195610949E+00       7    6    1        -0.1198681783E+02      0.1218128319E+02
          0                 2           2             7    6     1       0.2415702873E+00       7    6    1         0.1329678215E+02      0.1330168045E+02
          0                 3           2             7    6     1      -0.2219655620E+00       7    6    1        -0.1233206996E+02      0.1233297955E+02
          0                 4           2             7    6     1       0.2118574893E+00       7    6    1         0.1187746480E+02      0.1187773615E+02
          0                 5           2             7    6     1      -0.9097131853E-02       7    6    1        -0.5160632170E+00      0.5200571737E+00
          0                 6           2             7    6     1      -0.1738234436E-02       7    6    1        -0.9851749353E-01      0.9940055779E-01
          0                 7           2             7    6     1      -0.3325195105E-03       7    6    1        -0.1883032158E-01      0.1944975361E-01
          0                 8           1             7    6     1      -0.6367819927E-04       7    6    1        -0.3603261751E-02      0.4194181238E-02
          0                 9           1             7    6     1      -0.1220630880E-04       7    6    1        -0.6902086450E-03      0.1182381740E-02
          0                10           1             8    2     1       0.3827257711E-05       7    6    1        -0.1323318820E-03      0.4494354385E-03

    ------------------------------------------------
       NWT REQUIRED           10 OUTER ITERATIONS 
       AND A TOTAL OF         17 INNER ITERATIONS.
    ------------------------------------------------

 NO OUTPUT CONTROL FOR STRESS PERIOD   21   TIME STEP    6
 
 SOLVING FOR HEAD 
                                                   Max.-Head-Change                         Max.-Flux-Residual
  Residual-Control   Outer-Iter.   Inner-Iter.     Column Row Layer    Maximum-Head-Change  Column Row Layer    Maximum-Flux-Residual          L2-NORM 
          0                 1           2             7    6     1      -0.2074320140E+00       7    6    1        -0.1132510546E+02      0.1151784810E+02
          0                 2           2             7    6     1       0.2285786965E+00       7    6    1         0.1258161990E+02      0.1258659348E+02
          0                 3           2             7    6     1      -0.2445887273E+00       7    6    1        -0.1358868939E+02      0.1358949085E+02
     PET DIFF ERROR     6    7   -0.9433581681E-08    0.8500000703E-07
     PET DIFF ERROR     6    8   -0.9433581686E-08    0.8500000703E-07
          0                 4           2             7    6     1       0.2412110992E+00       7    6    1         0.1354512969E+02      0.1354542911E+02
          0                 5           2             7    6     1      -0.2280612295E+00       7    6    1        -0.1290310804E+02      0.1290327324E+02
          0                 6           2             7    6     1       0.2234135483E+00       7    6    1         0.1275546677E+02      0.1275563472E+02
          0                 7           2             7    6     1      -0.5426399568E-02       7    6    1        -0.3140863597E+00      0.3201119826E+00
          0                 8           2             7    6     1      -0.1113296685E-02       7    6    1        -0.6437847332E-01      0.6520955971E-01
          0                 9           2             7    6     1      -0.2286602172E-03       7    6    1        -0.1321107004E-01      0.1334375137E-01
          0                10           1             7    6     1      -0.4701317710E-04       7    6    1        -0.2713994101E-02      0.2758922556E-02
          0                11           1             7    6     1      -0.9675346625E-05       7    6    1        -0.5581127946E-03      0.5918750541E-03

    ------------------------------------------------
       NWT REQUIRED           11 OUTER ITERATIONS 
       AND A TOTAL OF         20 INNER ITERATIONS.
    ------------------------------------------------

 NO OUTPUT CONTROL FOR STRESS PERIOD   21   TIME STEP    7
 
 SOLVING FOR HEAD 
                                                   Max.-Head-Change                         Max.-Flux-Residual
  Residual-Control   Outer-Iter.   Inner-Iter.     Column Row Layer    Maximum-Head-Change  Column Row Layer    Maximum-Flux-Residual          L2-NORM 
          0                 1           2             7    6     1      -0.2217571162E+00       7    6    1        -0.1210652451E+02      0.1227688094E+02
          0                 2           2             7    6     1       0.2437440760E+00       7    6    1         0.1343826583E+02      0.1344317148E+02
          0                 3           2             7    6     1      -0.2217784635E+00       7    6    1        -0.1232147589E+02      0.1232234081E+02
          0                 4           2             7    6     1       0.2108702249E+00       7    6    1         0.1182216988E+02      0.1182244987E+02
          0                 5           2             7    6     1      -0.9236048750E-02       7    6    1        -0.5239085903E+00      0.5277772407E+00
          0                 6           2             7    6     1      -0.1764938316E-02       7    6    1        -0.1000247237E+00      0.1008822758E+00
          0                 7           2             7    6     1      -0.3376564964E-03       7    6    1        -0.1912010854E-01      0.1972760907E-01
          0                 8           1             7    6     1      -0.6466705982E-04       7    6    1        -0.3659017183E-02      0.4240665192E-02
          0                 9           1             7    6     1      -0.1239677247E-04       7    6    1        -0.7009409874E-03      0.1187600750E-02
          0                10           1             8    2     1       0.3823497291E-05       7    6    1        -0.1343993904E-03      0.4494449610E-03

    ------------------------------------------------
       NWT REQUIRED           10 OUTER ITERATIONS 
       AND A TOTAL OF         17 INNER ITERATIONS.
    ------------------------------------------------

 NO OUTPUT CONTROL FOR STRESS PERIOD   21   TIME STEP    8
 
 SOLVING FOR HEAD 
                                                   Max.-Head-Change                         Max.-Flux-Residual
  Residual-Control   Outer-Iter.   Inner-Iter.     Column Row Layer    Maximum-Head-Change  Column Row Layer    Maximum-Flux-Residual          L2-NORM 
          0                 1           2             7    6     1      -0.2072122831E+00       7    6    1        -0.1131301541E+02      0.1148499697E+02
          0                 2           2             7    6     1       0.2285561885E+00       7    6    1         0.1258041187E+02      0.1258532435E+02
          0                 3           2             7    6     1      -0.2514321794E+00       7    6    1        -0.1396885047E+02      0.1396962752E+02
     PET DIFF ERROR     6    7   -0.1004855276E-07    0.8500000703E-07
     PET DIFF ERROR     6    8   -0.1004855275E-07    0.8500000703E-07
          0                 4           2             7    6     1       0.2485434509E+00       7    6    1         0.1395691358E+02      0.1395722160E+02
          0                 5           2             7    6     1      -0.2344831543E+00       7    6    1        -0.1326646913E+02      0.1326663933E+02
     PET DIFF ERROR     6    7   -0.3618751627E-08    0.8500000703E-07
     PET DIFF ERROR     6    8   -0.3618751635E-08    0.8500000703E-07
          0                 6           2             7    6     1       0.2292845737E+00       7    6    1         0.1311198848E+02      0.1311216457E+02
          0                 7           2             7    6     1      -0.2228502037E+00       7    6    1        -0.1283960487E+02      0.1283972982E+02
          0                 8           2             7    6     1       0.2188749152E+00       7    6    1         0.1272545960E+02      0.1272561521E+02
          0                 9           2             7    6     1      -0.2132344900E-02       7    6    1        -0.1265177934E+00      0.1398308073E+00
          0                10           2             7    6     1      -0.4644282112E-03       7    6    1        -0.2752433871E-01      0.2989904995E-01
                                                   Max.-Head-Change                         Max.-Flux-Residual
  Residual-Control   Outer-Iter.   Inner-Iter.     Column Row Layer    Maximum-Head-Change  Column Row Layer    Maximum-Flux-Residual          L2-NORM 
          0                11           1             7    6     1      -0.1012807600E-03       7    6    1        -0.5995867065E-02      0.6416939148E-02
          0                12           1             7    6     1      -0.2211342205E-04       7    6    1        -0.1307766275E-02      0.1383607721E-02
          0                13           1             7    6     1      -0.4833688178E-05       7    6    1        -0.2855779151E-03      0.3010417568E-03

    ------------------------------------------------
       NWT REQUIRED           13 OUTER ITERATIONS 
       AND A TOTAL OF         23 INNER ITERATIONS.
    ------------------------------------------------

 NO OUTPUT CONTROL FOR STRESS PERIOD   21   TIME STEP    9
 
 SOLVING FOR HEAD 
                                                   Max.-Head-Change                         Max.-Flux-Residual
  Residual-Control   Outer-Iter.   Inner-Iter.     Column Row Layer    Maximum-Head-Change  Column Row Layer    Maximum-Flux-Residual          L2-NORM 
          0                 1           2             7    6     1      -0.2243929062E+00       7    6    1        -0.1225020274E+02      0.1240145479E+02
          0                 2           2             7    6     1       0.2468243906E+00       7    6    1         0.1360815889E+02      0.1361306634E+02
          0                 3           2             7    6     1      -0.2219450034E+00       7    6    1        -0.1233076084E+02      0.1233162912E+02
          0                 4           2             7    6     1       0.2108859884E+00       7    6    1         0.1182306434E+02      0.1182334345E+02
          0                 5           2             7    6     1      -0.9163012694E-02       7    6    1        -0.5197779286E+00      0.5236780598E+00
          0                 6           2             7    6     1      -0.1750925768E-02       7    6    1        -0.9923278131E-01      0.1000973792E+00
          0                 7           2             7    6     1      -0.3349656935E-03       7    6    1        -0.1896813238E-01      0.1957878803E-01
          0                 8           1             7    6     1      -0.6414992617E-04       7    6    1        -0.3629827147E-02      0.4213660298E-02
          0                 9           1             7    6     1      -0.1229731465E-04       7    6    1        -0.6953307077E-03      0.1182925132E-02
          0                10           1             8    2     1       0.3819750628E-05       7    6    1        -0.1333201885E-03      0.4483839936E-03

    ------------------------------------------------
       NWT REQUIRED           10 OUTER ITERATIONS 
       AND A TOTAL OF         17 INNER ITERATIONS.
    ------------------------------------------------

 NO OUTPUT CONTROL FOR STRESS PERIOD   21   TIME STEP   10
 
 SOLVING FOR HEAD 
                                                   Max.-Head-Change                         Max.-Flux-Residual
  Residual-Control   Outer-Iter.   Inner-Iter.     Column Row Layer    Maximum-Head-Change  Column Row Layer    Maximum-Flux-Residual          L2-NORM 
          0                 1           2             7    6     1      -0.2070303676E+00       7    6    1        -0.1130301940E+02      0.1145877333E+02
          0                 2           2             7    6     1       0.2285375568E+00       7    6    1         0.1257941309E+02      0.1258431333E+02
          0                 3           2             7    6     1      -0.2498004556E+00       7    6    1        -0.1387821980E+02      0.1387899970E+02
     PET DIFF ERROR     6    7   -0.1082054730E-07    0.8500000703E-07
     PET DIFF ERROR     6    8   -0.1082054730E-07    0.8500000703E-07
          0                 4           2             7    6     1       0.2468045904E+00       7    6    1         0.1385928880E+02      0.1385960166E+02
          0                 5           2             7    6     1      -0.2319076141E+00       7    6    1        -0.1312077183E+02      0.1312094204E+02
     PET DIFF ERROR     6    7   -0.1036574587E-08    0.8500000703E-07
     PET DIFF ERROR     6    8   -0.1036574595E-08    0.8500000703E-07
          0                 6           2             7    6     1       0.2266978656E+00       7    6    1         0.1296408174E+02      0.1296425336E+02
          0                 7           2             7    6     1      -0.2226818429E+00       7    6    1        -0.1282990428E+02      0.1283002665E+02
          0                 8           2             7    6     1       0.2184714441E+00       7    6    1         0.1272269524E+02      0.1272285153E+02
          0                 9           2             7    6     1      -0.1814580855E-02       7    6    1        -0.1076684755E+00      0.1199701144E+00
          0                10           2             7    6     1      -0.3951898146E-03       7    6    1        -0.2342244803E-01      0.2565423888E-01
                                                   Max.-Head-Change                         Max.-Flux-Residual
  Residual-Control   Outer-Iter.   Inner-Iter.     Column Row Layer    Maximum-Head-Change  Column Row Layer    Maximum-Flux-Residual          L2-NORM 
          0                11           1             7    6     1      -0.8617307887E-04       7    6    1        -0.5101921677E-02      0.5505846154E-02
          0                12           1             7    6     1      -0.1881259070E-04       7    6    1        -0.1112673528E-02      0.1187549163E-02
          0                13           1             7    6     1      -0.4111599304E-05       7    6    1        -0.2429454562E-03      0.2589815837E-03

    ------------------------------------------------
       NWT REQUIRED           13 OUTER ITERATIONS 
       AND A TOTAL OF         23 INNER ITERATIONS.
    ------------------------------------------------

 NO OUTPUT CONTROL FOR STRESS PERIOD   21   TIME STEP   11
 
 SOLVING FOR HEAD 
                                                   Max.-Head-Change                         Max.-Flux-Residual
  Residual-Control   Outer-Iter.   Inner-Iter.     Column Row Layer    Maximum-Head-Change  Column Row Layer    Maximum-Flux-Residual          L2-NORM 
          0                 1           2             7    6     1      -0.2241898619E+00       7    6    1        -0.1223906571E+02      0.1237702126E+02
          0                 2           2             7    6     1       0.2467754499E+00       7    6    1         0.1360549415E+02      0.1361047159E+02
          0                 3           2             7    6     1      -0.2219063047E+00       7    6    1        -0.1232862439E+02      0.1232949175E+02
          0                 4           2             7    6     1       0.2104396202E+00       7    6    1         0.1179805542E+02      0.1179833467E+02
          0                 5           2             7    6     1      -0.9195908550E-02       7    6    1        -0.5216359587E+00      0.5255043805E+00
          0                 6           2             7    6     1      -0.1757248448E-02       7    6    1        -0.9958968656E-01      0.1004466372E+00
          0                 7           2             7    6     1      -0.3361818361E-03       7    6    1        -0.1903674367E-01      0.1964299921E-01
          0                 8           1             7    6     1      -0.6438400830E-04       7    6    1        -0.3643026587E-02      0.4223190153E-02
          0                 9           1             7    6     1      -0.1234239772E-04       7    6    1        -0.6978712295E-03      0.1183093294E-02
          0                10           1             8    2     1       0.3816016970E-05       7    6    1        -0.1338095797E-03      0.4478157109E-03

    ------------------------------------------------
       NWT REQUIRED           10 OUTER ITERATIONS 
       AND A TOTAL OF         17 INNER ITERATIONS.
    ------------------------------------------------

 NO OUTPUT CONTROL FOR STRESS PERIOD   21   TIME STEP   12
 
 SOLVING FOR HEAD 
                                                   Max.-Head-Change                         Max.-Flux-Residual
  Residual-Control   Outer-Iter.   Inner-Iter.     Column Row Layer    Maximum-Head-Change  Column Row Layer    Maximum-Flux-Residual          L2-NORM 
          0                 1           2             7    6     1      -0.2068481624E+00       7    6    1        -0.1129301087E+02      0.1143603406E+02
          0                 2           2             7    6     1       0.2281513383E+00       7    6    1         0.1257856438E+02      0.1258345316E+02
          0                 3           2             7    6     1      -0.2501734828E+00       7    6    1        -0.1389873608E+02      0.1389947351E+02
     PET DIFF ERROR     6    7   -0.1090470632E-07    0.8500000703E-07
     PET DIFF ERROR     6    8   -0.1090470632E-07    0.8500000703E-07
          0                 4           2             7    6     1       0.2476047088E+00       7    6    1         0.1390428220E+02      0.1390460492E+02
          0                 5           2             7    6     1      -0.2325224910E+00       7    6    1        -0.1315557167E+02      0.1315574212E+02
     PET DIFF ERROR     6    7   -0.1387397066E-08    0.8500000703E-07
     PET DIFF ERROR     6    8   -0.1387397075E-08    0.8500000703E-07
          0                 6           2             7    6     1       0.2272886828E+00       7    6    1         0.1299789154E+02      0.1299806493E+02
          0                 7           2             7    6     1      -0.2229531994E+00       7    6    1        -0.1284555649E+02      0.1284567971E+02
          0                 8           2             7    6     1       0.2187219577E+00       7    6    1         0.1273730474E+02      0.1273746199E+02
          0                 9           2             7    6     1      -0.1784681755E-02       7    6    1        -0.1059196447E+00      0.1184657013E+00
          0                10           2             7    6     1      -0.3885711577E-03       7    6    1        -0.2303546768E-01      0.2531669421E-01
                                                   Max.-Head-Change                         Max.-Flux-Residual
  Residual-Control   Outer-Iter.   Inner-Iter.     Column Row Layer    Maximum-Head-Change  Column Row Layer    Maximum-Flux-Residual          L2-NORM 
          0                11           1             7    6     1      -0.8470734606E-04       7    6    1        -0.5016254926E-02      0.5430126281E-02
          0                12           1             7    6     1      -0.1848787523E-04       7    6    1        -0.1093701770E-02      0.1170589992E-02
          0                13           1             7    6     1      -0.4039636994E-05       7    6    1        -0.2387423997E-03      0.2552080481E-03

    ------------------------------------------------
       NWT REQUIRED           13 OUTER ITERATIONS 
       AND A TOTAL OF         23 INNER ITERATIONS.
    ------------------------------------------------

 NO OUTPUT CONTROL FOR STRESS PERIOD   21   TIME STEP   13
 
 SOLVING FOR HEAD 
                                                   Max.-Head-Change                         Max.-Flux-Residual
  Residual-Control   Outer-Iter.   Inner-Iter.     Column Row Layer    Maximum-Head-Change  Column Row Layer    Maximum-Flux-Residual          L2-NORM 
          0                 1           2             7    6     1      -0.2243220002E+00       7    6    1        -0.1224621439E+02      0.1237347141E+02
          0                 2           2             7    6     1       0.2470921849E+00       7    6    1         0.1362299280E+02      0.1362803394E+02
          0                 3           2             7    6     1      -0.2218923634E+00       7    6    1        -0.1232786566E+02      0.1232873256E+02
          0                 4           2             7    6     1       0.2099561116E+00       7    6    1         0.1177096411E+02      0.1177124345E+02
          0                 5           2             7    6     1      -0.9234142270E-02       7    6    1        -0.5237957017E+00      0.5276291315E+00
          0                 6           2             7    6     1      -0.1764596062E-02       7    6    1        -0.1000044861E+00      0.1008529173E+00
          0                 7           2             7    6     1      -0.3375949406E-03       7    6    1        -0.1911647374E-01      0.1971780007E-01
          0                 8           1             7    6     1      -0.6465597051E-04       7    6    1        -0.3658363162E-02      0.4234418636E-02
          0                 9           1             7    6     1      -0.1239477047E-04       7    6    1        -0.7008227358E-03      0.1183397779E-02
          0                10           1             8    2     1       0.3812299570E-05       7    6    1        -0.1343780534E-03      0.4472139888E-03

    ------------------------------------------------
       NWT REQUIRED           10 OUTER ITERATIONS 
       AND A TOTAL OF         17 INNER ITERATIONS.
    ------------------------------------------------

 NO OUTPUT CONTROL FOR STRESS PERIOD   21   TIME STEP   14
 
 SOLVING FOR HEAD 
                                                   Max.-Head-Change                         Max.-Flux-Residual
  Residual-Control   Outer-Iter.   Inner-Iter.     Column Row Layer    Maximum-Head-Change  Column Row Layer    Maximum-Flux-Residual          L2-NORM 
          0                 1           2             7    6     1      -0.2066636517E+00       7    6    1        -0.1128287844E+02      0.1141573330E+02
          0                 2           2             7    6     1       0.2281384513E+00       7    6    1         0.1257788721E+02      0.1258275175E+02
          0                 3           2             7    6     1      -0.2523920865E+00       7    6    1        -0.1402199379E+02      0.1402272285E+02
     PET DIFF ERROR     6    7   -0.1018604648E-07    0.8500000703E-07
     PET DIFF ERROR     6    8   -0.1018604647E-07    0.8500000703E-07
          0                 4           2             7    6     1       0.2499800142E+00       7    6    1         0.1403769452E+02      0.1403801522E+02
          0                 5           2             7    6     1      -0.2356556513E+00       7    6    1        -0.1333285083E+02      0.1333302231E+02
     PET DIFF ERROR     6    7   -0.4222483770E-08    0.8500000703E-07
     PET DIFF ERROR     6    8   -0.4222483778E-08    0.8500000703E-07
          0                 6           2             7    6     1       0.2304175109E+00       7    6    1         0.1317684403E+02      0.1317702502E+02
          0                 7           2             7    6     1      -0.2233943031E+00       7    6    1        -0.1287100473E+02      0.1287113171E+02
          0                 8           2             7    6     1       0.2190209181E+00       7    6    1         0.1275473313E+02      0.1275489090E+02
          0                 9           2             7    6     1      -0.1755493654E-02       7    6    1        -0.1042133734E+00      0.1170220288E+00
          0                10           2             7    6     1      -0.3821057695E-03       7    6    1        -0.2265764936E-01      0.2499191495E-01
                                                   Max.-Head-Change                         Max.-Flux-Residual
  Residual-Control   Outer-Iter.   Inner-Iter.     Column Row Layer    Maximum-Head-Change  Column Row Layer    Maximum-Flux-Residual          L2-NORM 
          0                11           1             7    6     1      -0.8327470358E-04       7    6    1        -0.4932563636E-02      0.5357096115E-02
          0                12           1             7    6     1      -0.1817031424E-04       7    6    1        -0.1075156594E-02      0.1154200130E-02
          0                13           1             7    6     1      -0.3969223845E-05       7    6    1        -0.2346316021E-03      0.2515584162E-03

    ------------------------------------------------
       NWT REQUIRED           13 OUTER ITERATIONS 
       AND A TOTAL OF         23 INNER ITERATIONS.
    ------------------------------------------------

 NO OUTPUT CONTROL FOR STRESS PERIOD   21   TIME STEP   15
 
 SOLVING FOR HEAD 
                                                   Max.-Head-Change                         Max.-Flux-Residual
  Residual-Control   Outer-Iter.   Inner-Iter.     Column Row Layer    Maximum-Head-Change  Column Row Layer    Maximum-Flux-Residual          L2-NORM 
          0                 1           2             7    6     1      -0.2245287728E+00       7    6    1        -0.1225743580E+02      0.1237608191E+02
          0                 2           2             7    6     1       0.2474924233E+00       7    6    1         0.1364509564E+02      0.1365019422E+02
          0                 3           2             7    6     1      -0.2218836657E+00       7    6    1        -0.1232739871E+02      0.1232826496E+02
          0                 4           2             7    6     1       0.2093605006E+00       7    6    1         0.1173758840E+02      0.1173786791E+02
          0                 5           2             7    6     1      -0.9291941739E-02       7    6    1        -0.5270614162E+00      0.5308480395E+00
          0                 6           2             7    6     1      -0.1775700285E-02       7    6    1        -0.1006314908E+00      0.1014686485E+00
          0                 7           2             7    6     1      -0.3397299109E-03       7    6    1        -0.1923695590E-01      0.1983192894E-01
          0                 8           1             7    6     1      -0.6506675124E-04       7    6    1        -0.3681532170E-02      0.4252373148E-02
          0                 9           1             7    6     1      -0.1247385744E-04       7    6    1        -0.7052805372E-03      0.1184569581E-02
          0                10           1             8    2     1       0.3808518391E-05       7    6    1        -0.1352364632E-03      0.4466857967E-03

    ------------------------------------------------
       NWT REQUIRED           10 OUTER ITERATIONS 
       AND A TOTAL OF         17 INNER ITERATIONS.
    ------------------------------------------------

 NO OUTPUT CONTROL FOR STRESS PERIOD   21   TIME STEP   16
 
 SOLVING FOR HEAD 
                                                   Max.-Head-Change                         Max.-Flux-Residual
  Residual-Control   Outer-Iter.   Inner-Iter.     Column Row Layer    Maximum-Head-Change  Column Row Layer    Maximum-Flux-Residual          L2-NORM 
          0                 1           2             7    6     1      -0.2064701326E+00       7    6    1        -0.1127225170E+02      0.1139696244E+02
          0                 2           2             7    6     1       0.2281249693E+00       7    6    1         0.1257717769E+02      0.1258199455E+02
          0                 3           2             7    6     1      -0.2563476456E+00       7    6    1        -0.1424173919E+02      0.1424245482E+02
     PET DIFF ERROR     6    7   -0.6789088628E-08    0.8500000703E-07
     PET DIFF ERROR     6    8   -0.6789088624E-08    0.8500000703E-07
          0                 4           2             7    6     1       0.2542141731E+00       7    6    1         0.1427549458E+02      0.1427580340E+02
          0                 5           2             7    6     1      -0.2434723356E+00       7    6    1        -0.1377509649E+02      0.1377526799E+02
     PET DIFF ERROR     6    7   -0.1066175119E-07    0.8500000703E-07
     PET DIFF ERROR     6    8   -0.1066175119E-07    0.8500000703E-07
          0                 6           2             7    6     1       0.2383399374E+00       7    6    1         0.1362993474E+02      0.1363015025E+02
          0                 7           2             7    6     1      -0.2244298728E+00       7    6    1        -0.1293073152E+02      0.1293086782E+02
          0                 8           2             7    6     1       0.2196939673E+00       7    6    1         0.1279394294E+02      0.1279410079E+02
          0                 9           2             7    6     1      -0.1733548732E-02       7    6    1        -0.1029354755E+00      0.1160295526E+00
          0                10           2             7    6     1      -0.3772238314E-03       7    6    1        -0.2237338342E-01      0.2476453990E-01
                                                   Max.-Head-Change                         Max.-Flux-Residual
  Residual-Control   Outer-Iter.   Inner-Iter.     Column Row Layer    Maximum-Head-Change  Column Row Layer    Maximum-Flux-Residual          L2-NORM 
          0                11           1             7    6     1      -0.8218860842E-04       7    6    1        -0.4869327054E-02      0.5305152942E-02
          0                12           1             7    6     1      -0.1792867742E-04       7    6    1        -0.1061088684E-02      0.1142382411E-02
          0                13           1             7    6     1      -0.3915461237E-05       7    6    1        -0.2315018423E-03      0.2488976847E-03

    ------------------------------------------------
       NWT REQUIRED           13 OUTER ITERATIONS 
       AND A TOTAL OF         23 INNER ITERATIONS.
    ------------------------------------------------

 NO OUTPUT CONTROL FOR STRESS PERIOD   21   TIME STEP   17
 
 SOLVING FOR HEAD 
                                                   Max.-Head-Change                         Max.-Flux-Residual
  Residual-Control   Outer-Iter.   Inner-Iter.     Column Row Layer    Maximum-Head-Change  Column Row Layer    Maximum-Flux-Residual          L2-NORM 
          0                 1           2             7    6     1      -0.2251622828E+00       7    6    1        -0.1229193085E+02      0.1240341036E+02
          0                 2           2             7    6     1       0.2483664383E+00       7    6    1         0.1369332398E+02      0.1369846679E+02
          0                 3           2             7    6     1      -0.2219053702E+00       7    6    1        -0.1232862356E+02      0.1232948999E+02
          0                 4           2             7    6     1       0.2159224558E+00       7    6    1         0.1210544472E+02      0.1210571510E+02
          0                 5           2             7    6     1      -0.8037889157E-02       7    6    1        -0.4561710710E+00      0.4608222313E+00
          0                 6           2             7    6     1      -0.1534941100E-02       7    6    1        -0.8703067626E-01      0.8806582287E-01
          0                 7           2             7    6     1      -0.2934691430E-03       7    6    1        -0.1662523224E-01      0.1731899475E-01
          0                 8           1             7    6     1      -0.5617107163E-04       7    6    1        -0.3179599644E-02      0.3824821451E-02
          0                 9           1             7    6     1      -0.1076209952E-04       7    6    1        -0.6087568215E-03      0.1128267491E-02
          0                10           1             8    2     1       0.3804828753E-05       7    6    1        -0.1166599884E-03      0.4406618791E-03

    ------------------------------------------------
       NWT REQUIRED           10 OUTER ITERATIONS 
       AND A TOTAL OF         17 INNER ITERATIONS.
    ------------------------------------------------

 NO OUTPUT CONTROL FOR STRESS PERIOD   21   TIME STEP   18
 
 SOLVING FOR HEAD 
                                                   Max.-Head-Change                         Max.-Flux-Residual
  Residual-Control   Outer-Iter.   Inner-Iter.     Column Row Layer    Maximum-Head-Change  Column Row Layer    Maximum-Flux-Residual          L2-NORM 
          0                 1           2             7    6     1      -0.2067151178E+00       7    6    1        -0.1128583766E+02      0.1140408619E+02
     PET DIFF ERROR     6    7   -0.4290954149E-07    0.8500000703E-07
     PET DIFF ERROR     6    8   -0.4290954153E-07    0.8500000703E-07
          0                 2           2             7    6     1       0.2281419210E+00       7    6    1         0.1257809215E+02      0.1258368639E+02
          0                 3           2             7    6     1      -0.2217952282E+00       7    6    1        -0.1232237916E+02      0.1232321268E+02
          0                 4           2             7    6     1       0.2175927721E+00       7    6    1         0.1219910881E+02      0.1219938158E+02
          0                 5           2             7    6     1      -0.8153379947E-02       7    6    1        -0.4627143743E+00      0.4673503577E+00
          0                 6           2             7    6     1      -0.1557046581E-02       7    6    1        -0.8828206145E-01      0.8930466094E-01
          0                 7           2             7    6     1      -0.2977046919E-03       7    6    1        -0.1686482204E-01      0.1754798204E-01
          0                 8           1             7    6     1      -0.5698342205E-04       7    6    1        -0.3225518754E-02      0.3862064974E-02
          0                 9           1             7    6     1      -0.1091804332E-04       7    6    1        -0.6175657684E-03      0.1132365616E-02
          0                10           1             8    2     1       0.3802913403E-05       7    6    1        -0.1183512511E-03      0.4407591602E-03

    ------------------------------------------------
       NWT REQUIRED           10 OUTER ITERATIONS 
       AND A TOTAL OF         17 INNER ITERATIONS.
    ------------------------------------------------

 NO OUTPUT CONTROL FOR STRESS PERIOD   21   TIME STEP   19
 
 SOLVING FOR HEAD 
                                                   Max.-Head-Change                         Max.-Flux-Residual
  Residual-Control   Outer-Iter.   Inner-Iter.     Column Row Layer    Maximum-Head-Change  Column Row Layer    Maximum-Flux-Residual          L2-NORM 
          0                 1           2             7    6     1      -0.2080846921E+00       7    6    1        -0.1136063618E+02      0.1147537493E+02
          0                 2           2             7    6     1       0.2295241229E+00       7    6    1         0.1265430272E+02      0.1265990368E+02
          0                 3           2             7    6     1      -0.2216154040E+00       7    6    1        -0.1231241152E+02      0.1231324737E+02
          0                 4           2             7    6     1       0.2172818540E+00       7    6    1         0.1218168696E+02      0.1218195927E+02
          0                 5           2             7    6     1      -0.8161660785E-02       7    6    1        -0.4631814133E+00      0.4678012614E+00
          0                 6           2             7    6     1      -0.1558641385E-02       7    6    1        -0.8837196588E-01      0.8939077243E-01
          0                 7           2             7    6     1      -0.2980120092E-03       7    6    1        -0.1688213908E-01      0.1756318962E-01
          0                 8           1             7    6     1      -0.5704267323E-04       7    6    1        -0.3228856162E-02      0.3863713290E-02
          0                 9           1             7    6     1      -0.1092947144E-04       7    6    1        -0.6182091811E-03      0.1131950637E-02
          0                10           1             8    2     1       0.3801078838E-05       7    6    1        -0.1184753687E-03      0.4403987658E-03

    ------------------------------------------------
       NWT REQUIRED           10 OUTER ITERATIONS 
       AND A TOTAL OF         17 INNER ITERATIONS.
    ------------------------------------------------

 NO OUTPUT CONTROL FOR STRESS PERIOD   21   TIME STEP   20
 
 SOLVING FOR HEAD 
                                                   Max.-Head-Change                         Max.-Flux-Residual
  Residual-Control   Outer-Iter.   Inner-Iter.     Column Row Layer    Maximum-Head-Change  Column Row Layer    Maximum-Flux-Residual          L2-NORM 
          0                 1           2             7    6     1      -0.2078829243E+00       7    6    1        -0.1134971639E+02      0.1146210041E+02
          0                 2           2             7    6     1       0.2292024195E+00       7    6    1         0.1263655797E+02      0.1264196924E+02
          0                 3           2             7    6     1      -0.2289366228E+00       7    6    1        -0.1271911621E+02      0.1271992242E+02
          0                 4           2             7    6     1       0.2247855162E+00       7    6    1         0.1262289706E+02      0.1262317226E+02
          0                 5           2             7    6     1      -0.8307218882E-02       7    6    1        -0.4712555989E+00      0.4752116001E+00
          0                 6           2             7    6     1      -0.1587278626E-02       7    6    1        -0.8996296326E-01      0.9090033844E-01
          0                 7           2             7    6     1      -0.3036349443E-03       7    6    1        -0.1719493809E-01      0.1785884374E-01
          0                 8           1             7    6     1      -0.5814477250E-04       7    6    1        -0.3290209479E-02      0.3914536389E-02
          0                 9           1             7    6     1      -0.1114525735E-04       7    6    1        -0.6302250986E-03      0.1138055468E-02
          0                10           1             8    2     1       0.3799171741E-05       7    6    1        -0.1208278325E-03      0.4407105627E-03

    ------------------------------------------------
       NWT REQUIRED           10 OUTER ITERATIONS 
       AND A TOTAL OF         17 INNER ITERATIONS.
    ------------------------------------------------

 NO OUTPUT CONTROL FOR STRESS PERIOD   21   TIME STEP   21
 
 SOLVING FOR HEAD 
                                                   Max.-Head-Change                         Max.-Flux-Residual
  Residual-Control   Outer-Iter.   Inner-Iter.     Column Row Layer    Maximum-Head-Change  Column Row Layer    Maximum-Flux-Residual          L2-NORM 
          0                 1           2             7    6     1      -0.2154323515E+00       7    6    1        -0.1176157783E+02      0.1186792022E+02
          0                 2           2             7    6     1       0.2373362189E+00       7    6    1         0.1308507048E+02      0.1309057457E+02
          0                 3           2             7    6     1      -0.2212427692E+00       7    6    1        -0.1229178854E+02      0.1229263773E+02
          0                 4           2             7    6     1       0.2161999571E+00       7    6    1         0.1212104773E+02      0.1212131856E+02
          0                 5           2             7    6     1      -0.8148193571E-02       7    6    1        -0.4624140699E+00      0.4670045853E+00
          0                 6           2             7    6     1      -0.1556083762E-02       7    6    1        -0.8822640967E-01      0.8924065752E-01
          0                 7           2             7    6     1      -0.2975255163E-03       7    6    1        -0.1685448353E-01      0.1753393989E-01
          0                 8           1             7    6     1      -0.5694999930E-04       7    6    1        -0.3223593521E-02      0.3857179376E-02
          0                 9           1             7    6     1      -0.1091179280E-04       7    6    1        -0.6172061687E-03      0.1129938060E-02
          0                10           1             8    2     1       0.3797343680E-05       7    6    1        -0.1182839587E-03      0.4395856544E-03

    ------------------------------------------------
       NWT REQUIRED           10 OUTER ITERATIONS 
       AND A TOTAL OF         17 INNER ITERATIONS.
    ------------------------------------------------

 NO OUTPUT CONTROL FOR STRESS PERIOD   21   TIME STEP   22
 
 SOLVING FOR HEAD 
                                                   Max.-Head-Change                         Max.-Flux-Residual
  Residual-Control   Outer-Iter.   Inner-Iter.     Column Row Layer    Maximum-Head-Change  Column Row Layer    Maximum-Flux-Residual          L2-NORM 
          0                 1           2             7    6     1      -0.2070997435E+00       7    6    1        -0.1130714428E+02      0.1141566834E+02
          0                 2           2             7    6     1       0.2285438169E+00       7    6    1         0.1257982428E+02      0.1258558088E+02
          0                 3           2             7    6     1      -0.2209481724E+00       7    6    1        -0.1227559326E+02      0.1227647369E+02
          0                 4           2             7    6     1       0.2162942268E+00       7    6    1         0.1212631327E+02      0.1212657756E+02
          0                 5           2             7    6     1      -0.8172536392E-02       7    6    1        -0.4637974417E+00      0.4684049270E+00
          0                 6           2             7    6     1      -0.1560724327E-02       7    6    1        -0.8848984410E-01      0.8950312079E-01
          0                 7           2             7    6     1      -0.2984113919E-03       7    6    1        -0.1690472276E-01      0.1758130300E-01
          0                 8           1             7    6     1      -0.5711932821E-04       7    6    1        -0.3233187570E-02      0.3864102736E-02
          0                 9           1             7    6     1      -0.1094419841E-04       7    6    1        -0.6190408180E-03      0.1130159270E-02
          0                10           1             8    2     1       0.3795443586E-05       7    6    1        -0.1186351165E-03      0.4392662285E-03

    ------------------------------------------------
       NWT REQUIRED           10 OUTER ITERATIONS 
       AND A TOTAL OF         17 INNER ITERATIONS.
    ------------------------------------------------

 NO OUTPUT CONTROL FOR STRESS PERIOD   21   TIME STEP   23
 
 SOLVING FOR HEAD 
                                                   Max.-Head-Change                         Max.-Flux-Residual
  Residual-Control   Outer-Iter.   Inner-Iter.     Column Row Layer    Maximum-Head-Change  Column Row Layer    Maximum-Flux-Residual          L2-NORM 
          0                 1           2             7    6     1      -0.2071782264E+00       7    6    1        -0.1131148774E+02      0.1141810709E+02
          0                 2           2             7    6     1       0.2285516572E+00       7    6    1         0.1258025817E+02      0.1258573875E+02
          0                 3           2             7    6     1      -0.2299510600E+00       7    6    1        -0.1277571938E+02      0.1277656213E+02
          0                 4           2             7    6     1       0.2259281884E+00       7    6    1         0.1266644019E+02      0.1266670732E+02
          0                 5           2             7    6     1      -0.8701392828E-02       7    6    1        -0.4937801361E+00      0.4984436295E+00
          0                 6           2             7    6     1      -0.1661860241E-02       7    6    1        -0.9421860428E-01      0.9519687042E-01
          0                 7           2             7    6     1      -0.3177736509E-03       7    6    1        -0.1800059745E-01      0.1863757490E-01
          0                 8           1             7    6     1      -0.6083002293E-04       7    6    1        -0.3443049992E-02      0.4040325408E-02
          0                 9           1             7    6     1      -0.1165601332E-04       7    6    1        -0.6592695638E-03      0.1152007435E-02
          0                10           1             8    2     1       0.3793622778E-05       7    6    1        -0.1263535735E-03      0.4410600918E-03

    ------------------------------------------------
       NWT REQUIRED           10 OUTER ITERATIONS 
       AND A TOTAL OF         17 INNER ITERATIONS.
    ------------------------------------------------

 NO OUTPUT CONTROL FOR STRESS PERIOD   21   TIME STEP   24
 
 SOLVING FOR HEAD 
                                                   Max.-Head-Change                         Max.-Flux-Residual
  Residual-Control   Outer-Iter.   Inner-Iter.     Column Row Layer    Maximum-Head-Change  Column Row Layer    Maximum-Flux-Residual          L2-NORM 
          0                 1           2             7    6     1      -0.2164005663E+00       7    6    1        -0.1181457919E+02      0.1191508246E+02
          0                 2           2             7    6     1       0.2381504969E+00       7    6    1         0.1312996927E+02      0.1313553107E+02
          0                 3           2             7    6     1      -0.2213467340E+00       7    6    1        -0.1229760292E+02      0.1229845131E+02
          0                 4           2             7    6     1       0.2162469117E+00       7    6    1         0.1212370906E+02      0.1212397926E+02
          0                 5           2             7    6     1      -0.8204745734E-02       7    6    1        -0.4656151413E+00      0.4701738052E+00
          0                 6           2             7    6     1      -0.1566922004E-02       7    6    1        -0.8883943281E-01      0.8984199001E-01
          0                 7           2             7    6     1      -0.2996046510E-03       7    6    1        -0.1697199985E-01      0.1764306837E-01
          0                 8           1             7    6     1      -0.5734919803E-04       7    6    1        -0.3246142404E-02      0.3872761552E-02
          0                 9           1             7    6     1      -0.1098850108E-04       7    6    1        -0.6215362400E-03      0.1130049398E-02
          0                10           1             8    2     1       0.3791730438E-05       7    6    1        -0.1191160916E-03      0.4386329412E-03

    ------------------------------------------------
       NWT REQUIRED           10 OUTER ITERATIONS 
       AND A TOTAL OF         17 INNER ITERATIONS.
    ------------------------------------------------

 NO OUTPUT CONTROL FOR STRESS PERIOD   21   TIME STEP   25
 
 SOLVING FOR HEAD 
                                                   Max.-Head-Change                         Max.-Flux-Residual
  Residual-Control   Outer-Iter.   Inner-Iter.     Column Row Layer    Maximum-Head-Change  Column Row Layer    Maximum-Flux-Residual          L2-NORM 
          0                 1           2             7    6     1      -0.2073176912E+00       7    6    1        -0.1131920222E+02      0.1142240786E+02
          0                 2           2             7    6     1       0.2285655283E+00       7    6    1         0.1258102883E+02      0.1258685557E+02
          0                 3           2             7    6     1      -0.2209999280E+00       7    6    1        -0.1227850543E+02      0.1227938410E+02
          0                 4           2             7    6     1       0.2163478110E+00       7    6    1         0.1212934591E+02      0.1212960945E+02
          0                 5           2             7    6     1      -0.8225373658E-02       7    6    1        -0.4667884212E+00      0.4713662934E+00
          0                 6           2             7    6     1      -0.1570849792E-02       7    6    1        -0.8906258452E-01      0.9006468104E-01
          0                 7           2             7    6     1      -0.3003536475E-03       7    6    1        -0.1701450825E-01      0.1768299287E-01
          0                 8           1             7    6     1      -0.5749222054E-04       7    6    1        -0.3254251538E-02      0.3878443134E-02
          0                 9           1             7    6     1      -0.1101584629E-04       7    6    1        -0.6230854490E-03      0.1130139356E-02
          0                10           1             8    2     1       0.3789916632E-05       7    6    1        -0.1194123683E-03      0.4383231844E-03

    ------------------------------------------------
       NWT REQUIRED           10 OUTER ITERATIONS 
       AND A TOTAL OF         17 INNER ITERATIONS.
    ------------------------------------------------

 NO OUTPUT CONTROL FOR STRESS PERIOD   21   TIME STEP   26
 
 SOLVING FOR HEAD 
                                                   Max.-Head-Change                         Max.-Flux-Residual
  Residual-Control   Outer-Iter.   Inner-Iter.     Column Row Layer    Maximum-Head-Change  Column Row Layer    Maximum-Flux-Residual          L2-NORM 
          0                 1           2             7    6     1      -0.2073797758E+00       7    6    1        -0.1132263435E+02      0.1142434873E+02
          0                 2           2             7    6     1       0.2285716722E+00       7    6    1         0.1258137170E+02      0.1258696650E+02
          0                 3           2             7    6     1      -0.2280408170E+00       7    6    1        -0.1266964209E+02      0.1267049057E+02
          0                 4           2             7    6     1       0.2238822379E+00       7    6    1         0.1255176571E+02      0.1255203140E+02
          0                 5           2             7    6     1      -0.8639154839E-02       7    6    1        -0.4902472323E+00      0.4948691122E+00
          0                 6           2             7    6     1      -0.1649978729E-02       7    6    1        -0.9354480123E-01      0.9451940966E-01
          0                 7           2             7    6     1      -0.3155026180E-03       7    6    1        -0.1787192144E-01      0.1850928116E-01
          0                 8           1             7    6     1      -0.6039543672E-04       7    6    1        -0.3418446963E-02      0.4016164922E-02
          0                 9           1             7    6     1      -0.1157276139E-04       7    6    1        -0.6545600691E-03      0.1147094377E-02
          0                10           1             8    2     1       0.3788031545E-05       7    6    1        -0.1254511835E-03      0.4396435997E-03

    ------------------------------------------------
       NWT REQUIRED           10 OUTER ITERATIONS 
       AND A TOTAL OF         17 INNER ITERATIONS.
    ------------------------------------------------

 NO OUTPUT CONTROL FOR STRESS PERIOD   21   TIME STEP   27
 
 SOLVING FOR HEAD 
                                                   Max.-Head-Change                         Max.-Flux-Residual
  Residual-Control   Outer-Iter.   Inner-Iter.     Column Row Layer    Maximum-Head-Change  Column Row Layer    Maximum-Flux-Residual          L2-NORM 
          0                 1           2             7    6     1      -0.1717313817E+00       7    6    1        -0.9378219307E+01      0.9499200629E+01
     PET DIFF ERROR     6    7   -0.4413167144E-07    0.8500000703E-07
     PET DIFF ERROR     6    8   -0.4413167148E-07    0.8500000703E-07
          0                 2           2             7    6     1       0.1896626606E+00       7    6    1         0.1043939334E+02      0.1044648140E+02
          0                 3           2             7    6     1      -0.1762999340E+00       7    6    1        -0.9795154453E+01      0.9796173764E+01
          0                 4           2             7    6     1       0.1719443056E+00       7    6    1         0.9639939920E+01      0.9640199564E+01
          0                 5           2             7    6     1      -0.5898275093E-02       7    6    1        -0.3348432176E+00      0.3391872981E+00
          0                 6           2             7    6     1      -0.1125892000E-02       7    6    1        -0.6385582032E-01      0.6507316386E-01
          0                 7           2             7    6     1      -0.2151789739E-03       7    6    1        -0.1219330503E-01      0.1309764154E-01
          0                 8           1             7    6     1      -0.4117091725E-04       7    6    1        -0.2331103120E-02      0.3141056127E-02
          0                 9           1             8    2     1       0.8424296686E-05       7    6    1        -0.4461449221E-03      0.1041095816E-02

    ------------------------------------------------
       NWT REQUIRED            9 OUTER ITERATIONS 
       AND A TOTAL OF         16 INNER ITERATIONS.
    ------------------------------------------------

 NO OUTPUT CONTROL FOR STRESS PERIOD   21   TIME STEP   28
 
 SOLVING FOR HEAD 
                                                   Max.-Head-Change                         Max.-Flux-Residual
  Residual-Control   Outer-Iter.   Inner-Iter.     Column Row Layer    Maximum-Head-Change  Column Row Layer    Maximum-Flux-Residual          L2-NORM 
          0                 1           2             5   13     1      -0.8302579530E-02       5   13    1        -0.4473571144E+00      0.1526100050E+01
          0                 2           2             8    2     1       0.2273373015E-02       8    2    1         0.5904192820E-01      0.3492699356E+00
          0                 3           2             8    2     1       0.1021731928E-02       8    2    1         0.2653548908E-01      0.1241073423E+00
          0                 4           2             8    2     1       0.4592010688E-03       8    2    1         0.1192595899E-01      0.5305911916E-01
          0                 5           2             8    2     1       0.2063804097E-03       8    2    1         0.5359930764E-02      0.2352971063E-01
          0                 6           1             8    2     1       0.9275422491E-04       8    2    1         0.2408932879E-02      0.1049952972E-01
          0                 7           1             8    2     1       0.4168680119E-04       8    2    1         0.1082654450E-02      0.4691354985E-02
          0                 8           1             8    2     1       0.1873540482E-04       8    2    1         0.4865804708E-03      0.2097250810E-02
          0                 9           1             8    2     1       0.8420293409E-05       8    2    1         0.2186850635E-03      0.9378848696E-03

    ------------------------------------------------
       NWT REQUIRED            9 OUTER ITERATIONS 
       AND A TOTAL OF         14 INNER ITERATIONS.
    ------------------------------------------------

 NO OUTPUT CONTROL FOR STRESS PERIOD   21   TIME STEP   29
 
 SOLVING FOR HEAD 
                                                   Max.-Head-Change                         Max.-Flux-Residual
  Residual-Control   Outer-Iter.   Inner-Iter.     Column Row Layer    Maximum-Head-Change  Column Row Layer    Maximum-Flux-Residual          L2-NORM 
          0                 1           2             5   13     1      -0.8017881448E-02       5   13    1        -0.4318602072E+00      0.1517885248E+01
          0                 2           2             8    2     1       0.2272250655E-02       8    2    1         0.5901278401E-01      0.3486641201E+00
          0                 3           2             8    2     1       0.1021227401E-02       8    2    1         0.2652238809E-01      0.1239860921E+00
          0                 4           2             8    2     1       0.4589742721E-03       8    2    1         0.1192006979E-01      0.5300941990E-01
          0                 5           2             8    2     1       0.2062784592E-03       8    2    1         0.5357283428E-02      0.2350776091E-01
          0                 6           1             8    2     1       0.9270839556E-04       8    2    1         0.2407742837E-02      0.1048976670E-01
          0                 7           1             8    2     1       0.4166619980E-04       8    2    1         0.1082119496E-02      0.4687001441E-02
          0                 8           1             8    2     1       0.1872614421E-04       8    2    1         0.4863399958E-03      0.2095306354E-02
          0                 9           1             8    2     1       0.8416130561E-05       8    2    1         0.2185769617E-03      0.9370153700E-03

    ------------------------------------------------
       NWT REQUIRED            9 OUTER ITERATIONS 
       AND A TOTAL OF         14 INNER ITERATIONS.
    ------------------------------------------------

 NO OUTPUT CONTROL FOR STRESS PERIOD   21   TIME STEP   30



 STREAM LISTING     PERIOD     21   STEP       30

 LAYER ROW COL. STREAM  RCH.  FLOW INTO     FLOW TO   FLOW OUT OF   OVRLND.     DIRECT     STREAM       STREAM     STREAM     STREAM   STREAMBED  STREAMBED
                SEG.NO.  NO.  STRM. RCH.    AQUIFER    STRM. RCH.    RUNOFF     PRECIP       ET          HEAD       DEPTH      WIDTH   CONDCTNC.   GRADIENT

   1    1    1     1     1    7.0000E+00  1.1914E-01   6.8809E+00  0.000E+00  0.000E+00  0.000E+00  1.09385E+03  7.984E-01  6.970E+00  3.137E-02  1.266E+00
   1    2    2     1     2    6.8809E+00  1.8311E-01   6.6977E+00  0.000E+00  0.000E+00  0.000E+00  1.08885E+03  7.942E-01  6.894E+00  4.826E-02  1.265E+00
   1    3    3     1     3    6.6977E+00  1.5480E-01   6.5429E+00  0.000E+00  0.000E+00  0.000E+00  1.08321E+03  7.894E-01  6.809E+00  4.085E-02  1.263E+00
   1    3    4     1     4    6.5429E+00  1.4143E-01   6.4015E+00  0.000E+00  0.000E+00  0.000E+00  1.07819E+03  7.852E-01  6.732E+00  3.737E-02  1.262E+00
   1    4    5     2     1    4.4015E+00  0.0000E+00   4.4015E+00  0.000E+00  0.000E+00  0.000E+00  1.07236E+03  4.259E-01  1.200E+01  0.000E+00  1.142E+00
   1    5    6     2     2    4.4015E+00  0.0000E+00   4.4015E+00  0.000E+00  0.000E+00  0.000E+00  1.06694E+03  4.259E-01  1.200E+01  0.000E+00  1.142E+00
   1    6    6     2     3    4.4015E+00  0.0000E+00   4.4015E+00  0.000E+00  0.000E+00  0.000E+00  1.06222E+03  4.259E-01  1.200E+01  0.000E+00  1.142E+00
   1    7    6     2     4    4.4015E+00  0.0000E+00   4.4015E+00  0.000E+00  0.000E+00  0.000E+00  1.05750E+03  4.259E-01  1.200E+01  0.000E+00  1.142E+00
   1    8    6     2     5    4.4015E+00  0.0000E+00   4.4015E+00  0.000E+00  0.000E+00  0.000E+00  1.05278E+03  4.259E-01  1.200E+01  0.000E+00  1.142E+00
   1    3    5     3     1    2.0000E+00  2.8252E-01   1.7175E+00  0.000E+00  0.000E+00  0.000E+00  1.07555E+03  1.909E+00  9.636E+00  7.227E-02  1.955E+00
   1    3    6     3     2    1.7175E+00  2.4905E-01   1.4684E+00  0.000E+00  0.000E+00  0.000E+00  1.07264E+03  1.727E+00  8.909E+00  6.682E-02  1.864E+00
   1    3    7     3     3    1.4684E+00  1.9718E-01   1.2712E+00  0.000E+00  0.000E+00  0.000E+00  1.06987E+03  1.555E+00  8.218E+00  5.547E-02  1.777E+00
   1    4    8     3     4    1.2712E+00  2.2567E-01   1.0456E+00  0.000E+00  0.000E+00  0.000E+00  1.06682E+03  1.364E+00  7.455E+00  6.709E-02  1.682E+00
   1    5    8     3     5    1.0456E+00  1.5790E-01   8.8768E-01  0.000E+00  0.000E+00  0.000E+00  1.06362E+03  1.164E+00  6.655E+00  4.991E-02  1.582E+00
   1    6    8     3     6    8.8768E-01  5.5980E-02   8.3170E-01  0.000E+00  0.000E+00  0.000E+00  1.06158E+03  1.036E+00  6.145E+00  1.844E-02  1.518E+00
   1    5   10     4     1    1.0000E+01  0.0000E+00   1.0000E+01  0.000E+00  0.000E+00  0.000E+00  1.07837E+03  6.385E-01  1.000E+01  0.000E+00  1.213E+00
   1    5    9     4     2    1.0000E+01  0.0000E+00   1.0000E+01  0.000E+00  0.000E+00  0.000E+00  1.07155E+03  6.385E-01  1.000E+01  0.000E+00  1.213E+00
   1    6    8     4     3    1.0000E+01  0.0000E+00   1.0000E+01  0.000E+00  0.000E+00  0.000E+00  1.06382E+03  6.385E-01  1.000E+01  0.000E+00  1.213E+00
   1    6    8     5     1    1.0832E+01  2.3262E-01   1.0599E+01  0.000E+00  0.000E+00  0.000E+00  1.05869E+03  6.881E-01  1.577E+01  6.307E-02  1.229E+00
   1    7    7     5     2    1.0599E+01  2.8607E-01   1.0313E+01  0.000E+00  0.000E+00  0.000E+00  1.05418E+03  6.822E-01  1.554E+01  7.769E-02  1.227E+00
   1    8    7     5     3    1.0313E+01  1.9716E-01   1.0116E+01  0.000E+00  0.000E+00  0.000E+00  1.04993E+03  6.766E-01  1.532E+01  5.363E-02  1.226E+00
   1    8    6     5     4    1.0116E+01  1.3929E-01   9.9766E+00  0.000E+00  0.000E+00  0.000E+00  1.04692E+03  6.727E-01  1.517E+01  3.792E-02  1.224E+00
   1    9    6     6     1    1.4378E+01  0.0000E+00   1.4378E+01  0.000E+00  0.000E+00  0.000E+00  1.04360E+03  8.762E-01  1.200E+01  0.000E+00  1.292E+00
   1   10    7     6     2    1.4378E+01  0.0000E+00   1.4378E+01  0.000E+00  0.000E+00  0.000E+00  1.03906E+03  8.762E-01  1.200E+01  0.000E+00  1.292E+00
   1   11    7     6     3    1.4378E+01  0.0000E+00   1.4378E+01  0.000E+00  0.000E+00  0.000E+00  1.03451E+03  8.762E-01  1.200E+01  0.000E+00  1.292E+00
   1   12    7     6     4    1.4378E+01  0.0000E+00   1.4378E+01  0.000E+00  0.000E+00  0.000E+00  1.02997E+03  8.762E-01  1.200E+01  0.000E+00  1.292E+00
   1   13    7     6     5    1.4378E+01  0.0000E+00   1.4378E+01  0.000E+00  0.000E+00  0.000E+00  1.02679E+03  8.762E-01  1.200E+01  0.000E+00  8.070E-02
   1   14    9     7     1    1.5000E+02  1.2799E+00   1.4872E+02  0.000E+00  0.000E+00  0.000E+00  1.03987E+03  2.288E+00  5.530E+01  5.593E-01  7.628E-01
   1   13    8     7     2    1.4872E+02  1.9097E+00   1.4681E+02  0.000E+00  0.000E+00  0.000E+00  1.03478E+03  2.279E+00  5.526E+01  6.148E-01  1.035E+00
   1   13    7     7     3    1.4681E+02  1.7566E+00   1.4505E+02  0.000E+00  0.000E+00  0.000E+00  1.02969E+03  2.270E+00  5.521E+01  5.584E-01  1.049E+00
   1   13    6     8     1    1.5943E+02  1.2963E+00   1.5814E+02  0.000E+00  0.000E+00  0.000E+00  1.02475E+03  2.878E+00  4.173E+01  4.252E-01  1.016E+00
   1   13    5     8     2    1.5814E+02  6.6649E-01   1.5747E+02  0.000E+00  0.000E+00  0.000E+00  1.01850E+03  2.871E+00  4.163E+01  4.242E-01  5.237E-01
   1   13    4     8     3    1.5747E+02 -2.0915E-01   1.5768E+02  0.000E+00  0.000E+00  0.000E+00  1.01224E+03  2.869E+00  4.161E+01  4.240E+00 -1.644E-02
   1   13    3     8     4    1.5768E+02 -1.8287E+00   1.5951E+02  0.000E+00  0.000E+00  0.000E+00  1.00600E+03  2.876E+00  4.171E+01  4.250E+00 -1.434E-01
   1   13    2     8     5    1.5951E+02 -6.2610E-01   1.6013E+02  0.000E+00  0.000E+00  0.000E+00  9.99760E+02  2.885E+00  4.183E+01  4.262E+00 -4.896E-02
   1   13    1     8     6    1.6013E+02 -2.8310E-01   1.6042E+02  0.000E+00  0.000E+00  0.000E+00  9.94763E+02  2.888E+00  4.187E+01  2.560E+00 -3.686E-02
   1    6    8     9     1    0.0000E+00  0.0000E+00   0.0000E+00  0.000E+00  0.000E+00  0.000E+00  1.07850E+03  0.000E+00  4.000E+00  0.000E+00  1.000E+00





UNSATURATED ZONE PACKAGE VOLUMETRIC BUDGET FOR  TIME STEP    30 STRESS PERIOD   21
  ------------------------------------------------------------------------------



     CUMULATIVE VOLUMES      L**3       RATES FOR THIS TIME STEP      L**3/T
     ------------------                 ------------------------

           IN:                                      IN:
           ---                                      ---
        INFILTRATION =    88777991.6921          INFILTRATION =           0.8475

          OUT:                                     OUT:
          ----                                     ----
              UZF ET =   616947584.2002                UZF ET =           0.9380
        UZF RECHARGE =  1267733478.1966          UZF RECHARGE =          19.6620

            IN - OUT = -1795903070.7047              IN - OUT =         -19.7525

          STORAGE:                                 STORAGE:
          --------                                 --------
      STORAGE CHANGE = -1795893339.9614        STORAGE CHANGE =         -19.7525

 PERCENT DISCREPANCY IS DIFFERENCE BETWEEN IN-OUT MINUS CHANGE IN STORAGE
 DIVIDED BY THE AVERAGE OF IN AND OUT TIMES 100

 PERCENT DISCREPANCY =          -0.00     PERCENT DISCREPANCY =           0.00






1
  VOLUMETRIC BUDGET FOR ENTIRE MODEL AT END OF TIME STEP   30, STRESS PERIOD  21
  ------------------------------------------------------------------------------

     CUMULATIVE VOLUMES      L**3       RATES FOR THIS TIME STEP      L**3/T
     ------------------                 ------------------------

           IN:                                      IN:
           ---                                      ---
             STORAGE =    65308760.0000               STORAGE =           2.5341
       CONSTANT HEAD =           0.0000         CONSTANT HEAD =           0.0000
               WELLS =           0.0000                 WELLS =           0.0000
     HEAD DEP BOUNDS =    15635124.0000       HEAD DEP BOUNDS =           0.2819
      STREAM LEAKAGE =   552616384.0000        STREAM LEAKAGE =           9.5309
        UZF RECHARGE =  1267732096.0000          UZF RECHARGE =          19.6620
               GW ET =           0.0000                 GW ET =           0.0000
     SURFACE LEAKAGE =           0.0000       SURFACE LEAKAGE =           0.0000

            TOTAL IN =  1901292288.0000              TOTAL IN =          32.0089

          OUT:                                     OUT:
          ----                                     ----
             STORAGE =  1279965440.0000               STORAGE =          17.3784
       CONSTANT HEAD =           0.0000         CONSTANT HEAD =           0.0000
               WELLS =     1235968.6250                 WELLS =           0.0000
     HEAD DEP BOUNDS =    15822308.0000       HEAD DEP BOUNDS =           0.2612
      STREAM LEAKAGE =   460500768.0000        STREAM LEAKAGE =           2.9470
        UZF RECHARGE =           0.0000          UZF RECHARGE =           0.0000
               GW ET =   143642016.0000                 GW ET =          11.4198
     SURFACE LEAKAGE =           0.0000       SURFACE LEAKAGE =           0.0000

           TOTAL OUT =  1901166464.0000             TOTAL OUT =          32.0064

            IN - OUT =      125824.0000              IN - OUT =       2.5444E-03

 PERCENT DISCREPANCY =           0.01     PERCENT DISCREPANCY =           0.01






         TIME SUMMARY AT END OF TIME STEP   30 IN STRESS PERIOD   21
                    SECONDS     MINUTES      HOURS       DAYS        YEARS
                    -----------------------------------------------------------
   TIME STEP LENGTH  87600.      1460.0      24.333      1.0139     2.77588E-03
 STRESS PERIOD TIME 2.62800E+06  43800.      730.00      30.417     8.32763E-02
         TOTAL TIME 5.51880E+07 9.19800E+05  15330.      638.75      1.7488    
1
1
                            STRESS PERIOD NO.   22, LENGTH =   2628000.    
                            -----------------------------------------------

                              NUMBER OF TIME STEPS =    30

                               MULTIPLIER FOR DELT =     1.000

                            INITIAL TIME STEP SIZE =   87600.00    

 WELL NO.  LAYER   ROW   COL   STRESS RATE         
 --------------------------------------------------
      1      1      6      4       0.000    
      2      1      6      7       0.000    
      3      1      7      4       0.000    
      4      1      7      5       0.000    
      5      1      8      4       0.000    
      6      1      8      5       0.000    
      7      1      9      4       0.000    
      8      1      9      5       0.000    
      9      1     10      4       0.000    
     10      1     10      5       0.000    

     10 WELLS

 REUSING NON-PARAMETER GHB CELLS FROM LAST STRESS PERIOD

      2 GHB CELLS

 REUSING STREAM SEGMENT DATA FROM LAST STRESS PERIOD



            AREAL INFILTRATION RATE
 READING ON UNIT   19 WITH FORMAT: (10F4.0)            

            1           2           3           4           5           6           7           8           9          10
 ........................................................................................................................
   1   1.0000E-10  2.0000E-10   0.000       0.000       0.000       0.000       0.000       0.000       0.000       0.000    
   2   2.0000E-10  1.0000E-10  2.0000E-10   0.000       0.000      8.0000E-10  8.0000E-10  5.0000E-10   0.000       0.000    
   3    0.000      5.0000E-10  1.0000E-10  1.0000E-10  8.0000E-10  8.0000E-10  5.0000E-10  5.0000E-10   0.000       0.000    
   4   8.0000E-10  5.0000E-10  1.0000E-10  1.0000E-10  1.0000E-10  1.0000E-10  1.0000E-10  1.0000E-10  2.0000E-10   0.000    
   5   8.0000E-10  5.0000E-10  1.0000E-10  1.0000E-10  1.0000E-10  1.0000E-10  1.0000E-10  1.0000E-10  1.0000E-10  1.0000E-10
   6   8.0000E-10  5.0000E-10  5.0000E-10  2.0000E-10  2.0000E-10  1.0000E-10  1.0000E-10  1.0000E-10  1.0000E-10  5.0000E-10
   7   8.0000E-10  5.0000E-10  5.0000E-10  2.0000E-10  2.0000E-10  1.0000E-10  1.0000E-10  2.0000E-10  2.0000E-10   0.000    
   8    0.000      5.0000E-10  5.0000E-10  2.0000E-10  2.0000E-10  1.0000E-10  1.0000E-10  2.0000E-10  5.0000E-10   0.000    
   9    0.000      5.0000E-10  5.0000E-10  2.0000E-10  2.0000E-10  1.0000E-10  1.0000E-10  2.0000E-10  5.0000E-10   0.000    
  10    0.000      5.0000E-10  5.0000E-10  2.0000E-10  2.0000E-10  1.0000E-10  1.0000E-10  2.0000E-10  5.0000E-10  8.0000E-10
  11    0.000      1.0000E-10  1.0000E-10  1.0000E-10  1.0000E-10  1.0000E-10  1.0000E-10  2.0000E-10  5.0000E-10   0.000    
  12   1.0000E-10  1.0000E-10  1.0000E-10  1.0000E-10  1.0000E-10  1.0000E-10  1.0000E-10  1.0000E-10  2.0000E-10   0.000    
  13   1.0000E-10  1.0000E-10  2.0000E-10  2.0000E-10  2.0000E-10  2.0000E-10  2.0000E-10  1.0000E-10  1.0000E-10   0.000    
  14    0.000      2.0000E-10  5.0000E-10  5.0000E-10  5.0000E-10  5.0000E-10  5.0000E-10  2.0000E-10  1.0000E-10   0.000    
  15    0.000       0.000      8.0000E-10  8.0000E-10  8.0000E-10  8.0000E-10   0.000       0.000       0.000       0.000    

                  ET RATE =  2.500000E-08

 USING ET EXTINCTION DEPTH FROM PREVIOUS STRESS PERIOD. CURRENT PERIOD IS:      22

 USING EXTINCTION WATER CONTENT FROM PREVIOUS STRESS PERIOD. CURRENT PERIOD IS:      22
 
 SOLVING FOR HEAD 
                                                   Max.-Head-Change                         Max.-Flux-Residual
  Residual-Control   Outer-Iter.   Inner-Iter.     Column Row Layer    Maximum-Head-Change  Column Row Layer    Maximum-Flux-Residual          L2-NORM 
          0                 1           2             3   13     1       0.2469333403E-01       3   13    1         0.1395762287E+01      0.3259394079E+01
          0                 2           2             3   13     1      -0.2385224083E-02       3   13    1        -0.1356671470E+00      0.4463662095E+00
          0                 3           2             8    2     1       0.1020723710E-02       8    2    1         0.2650931039E-01      0.1259777455E+00
          0                 4           2             8    2     1       0.4587478171E-03       8    2    1         0.1191419018E-01      0.5289929745E-01
          0                 5           2             8    2     1       0.2061766478E-03       8    2    1         0.5354640020E-02      0.2345182720E-01
          0                 6           1             8    2     1       0.9266262224E-04       8    2    1         0.2406554390E-02      0.1046637565E-01
          0                 7           1             8    2     1       0.4164562091E-04       8    2    1         0.1081585186E-02      0.4677148640E-02
          0                 8           1             8    2     1       0.1871689185E-04       8    2    1         0.4860997735E-03      0.2091132251E-02
          0                 9           1             8    2     1       0.8411970714E-05       8    2    1         0.2184689620E-03      0.9352394437E-03

    ------------------------------------------------
       NWT REQUIRED            9 OUTER ITERATIONS 
       AND A TOTAL OF         14 INNER ITERATIONS.
    ------------------------------------------------

 NO OUTPUT CONTROL FOR STRESS PERIOD   22   TIME STEP    1
 
 SOLVING FOR HEAD 
                                                   Max.-Head-Change                         Max.-Flux-Residual
  Residual-Control   Outer-Iter.   Inner-Iter.     Column Row Layer    Maximum-Head-Change  Column Row Layer    Maximum-Flux-Residual          L2-NORM 
          0                 1           2             2   13     1       0.2279494384E-01       2   13    1         0.1275607743E+01      0.3070330383E+01
          0                 2           2             8    2     1       0.2270012243E-02       3   13    1        -0.1239885481E+00      0.4328784558E+00
          0                 3           2             8    2     1       0.1020221081E-02       8    2    1         0.2649625926E-01      0.1253461372E+00
          0                 4           2             8    2     1       0.4585218622E-03       8    2    1         0.1190832309E-01      0.5278020297E-01
          0                 5           2             8    2     1       0.2060750699E-03       8    2    1         0.5352002482E-02      0.2340392710E-01
          0                 6           1             8    2     1       0.9261695822E-04       8    2    1         0.2405368697E-02      0.1044607740E-01
          0                 7           1             8    2     1       0.4162509305E-04       8    2    1         0.1081052166E-02      0.4668508352E-02
          0                 8           1             8    2     1       0.1870766376E-04       8    2    1         0.4858601591E-03      0.2087446104E-02
          0                 9           1             8    2     1       0.8407822372E-05       8    2    1         0.2183612457E-03      0.9336633497E-03

    ------------------------------------------------
       NWT REQUIRED            9 OUTER ITERATIONS 
       AND A TOTAL OF         14 INNER ITERATIONS.
    ------------------------------------------------

 NO OUTPUT CONTROL FOR STRESS PERIOD   22   TIME STEP    2
 
 SOLVING FOR HEAD 
                                                   Max.-Head-Change                         Max.-Flux-Residual
  Residual-Control   Outer-Iter.   Inner-Iter.     Column Row Layer    Maximum-Head-Change  Column Row Layer    Maximum-Flux-Residual          L2-NORM 
          0                 1           2             2   13     1       0.2125014535E-01       2   13    1         0.1189121665E+01      0.2916563060E+01
          0                 2           2             8    2     1       0.2268896396E-02       3   13    1        -0.1142465286E+00      0.4221685047E+00
          0                 3           2             8    2     1       0.1019719456E-02       8    2    1         0.2648323417E-01      0.1247887367E+00
          0                 4           2             8    2     1       0.4582963576E-03       8    2    1         0.1190246769E-01      0.5265446929E-01
          0                 5           2             8    2     1       0.2059736954E-03       8    2    1         0.5349370209E-02      0.2335275191E-01
          0                 6           1             8    2     1       0.9257138548E-04       8    2    1         0.2404185363E-02      0.1042447633E-01
          0                 7           1             8    2     1       0.4160460595E-04       8    2    1         0.1080520199E-02      0.4659324221E-02
          0                 8           1             8    2     1       0.1869845367E-04       8    2    1         0.4856210121E-03      0.2083521063E-02
          0                 9           1             8    2     1       0.8403682034E-05       8    2    1         0.2182537365E-03      0.9319787993E-03

    ------------------------------------------------
       NWT REQUIRED            9 OUTER ITERATIONS 
       AND A TOTAL OF         14 INNER ITERATIONS.
    ------------------------------------------------

 NO OUTPUT CONTROL FOR STRESS PERIOD   22   TIME STEP    3
 
 SOLVING FOR HEAD 
                                                   Max.-Head-Change                         Max.-Flux-Residual
  Residual-Control   Outer-Iter.   Inner-Iter.     Column Row Layer    Maximum-Head-Change  Column Row Layer    Maximum-Flux-Residual          L2-NORM 
          0                 1           2             1   13     1       0.2004837447E-01       2   13    1         0.1108457310E+01      0.2776207332E+01
          0                 2           2             8    2     1       0.2267782580E-02       2   13    1        -0.1054502262E+00      0.4126430225E+00
          0                 3           2             8    2     1       0.1019218695E-02       8    2    1         0.2647023255E-01      0.1243116410E+00
          0                 4           2             8    2     1       0.4580712209E-03       8    2    1         0.1189662230E-01      0.5255032323E-01
          0                 5           2             8    2     1       0.2058724762E-03       8    2    1         0.5346742184E-02      0.2331085297E-01
          0                 6           1             8    2     1       0.9252587903E-04       8    2    1         0.2403003835E-02      0.1040693854E-01
          0                 7           1             8    2     1       0.4158414637E-04       8    2    1         0.1079988995E-02      0.4651918949E-02
          0                 8           1             8    2     1       0.1868925558E-04       8    2    1         0.4853821922E-03      0.2080373678E-02
          0                 9           1             8    2     1       0.8399546698E-05       8    2    1         0.2181463663E-03      0.9306331640E-03

    ------------------------------------------------
       NWT REQUIRED            9 OUTER ITERATIONS 
       AND A TOTAL OF         14 INNER ITERATIONS.
    ------------------------------------------------

 NO OUTPUT CONTROL FOR STRESS PERIOD   22   TIME STEP    4
 
 SOLVING FOR HEAD 
                                                   Max.-Head-Change                         Max.-Flux-Residual
  Residual-Control   Outer-Iter.   Inner-Iter.     Column Row Layer    Maximum-Head-Change  Column Row Layer    Maximum-Flux-Residual          L2-NORM 
          0                 1           2             1   13     1       0.1921965215E-01       1   13    1         0.1044407304E+01      0.2647977548E+01
          0                 2           2             8    2     1       0.2266671012E-02       1   13    1        -0.1004732054E+00      0.4040819247E+00
          0                 3           2             8    2     1       0.1018718994E-02       8    2    1         0.2645725741E-01      0.1238579439E+00
          0                 4           2             8    2     1       0.4578465822E-03       8    2    1         0.1189078937E-01      0.5244488695E-01
          0                 5           2             8    2     1       0.2057714909E-03       8    2    1         0.5344120013E-02      0.2326829623E-01
          0                 6           1             8    2     1       0.9248048087E-04       8    2    1         0.2401825044E-02      0.1038912552E-01
          0                 7           1             8    2     1       0.4156373806E-04       8    2    1         0.1079459078E-02      0.4644398019E-02
          0                 8           1             8    2     1       0.1868008101E-04       8    2    1         0.4851439708E-03      0.2077176785E-02
          0                 9           1             8    2     1       0.8395422367E-05       8    2    1         0.2180392758E-03      0.9292672210E-03

    ------------------------------------------------
       NWT REQUIRED            9 OUTER ITERATIONS 
       AND A TOTAL OF         14 INNER ITERATIONS.
    ------------------------------------------------

 NO OUTPUT CONTROL FOR STRESS PERIOD   22   TIME STEP    5
 
 SOLVING FOR HEAD 
                                                   Max.-Head-Change                         Max.-Flux-Residual
  Residual-Control   Outer-Iter.   Inner-Iter.     Column Row Layer    Maximum-Head-Change  Column Row Layer    Maximum-Flux-Residual          L2-NORM 
          0                 1           2             1   13     1       0.1841911895E-01       1   13    1         0.1001102752E+01      0.2531048304E+01
          0                 2           2             8    2     1       0.2265561581E-02       1   13    1        -0.9644238227E-01      0.3964296224E+00
          0                 3           2             8    2     1       0.1018220234E-02       8    2    1         0.2644430713E-01      0.1234336238E+00
          0                 4           2             8    2     1       0.4576223574E-03       8    2    1         0.1188496739E-01      0.5234059324E-01
          0                 5           2             8    2     1       0.2056706876E-03       8    2    1         0.5341502663E-02      0.2322607804E-01
          0                 6           1             8    2     1       0.9243516400E-04       8    2    1         0.2400648382E-02      0.1037148499E-01
          0                 7           1             8    2     1       0.4154336476E-04       8    2    1         0.1078930086E-02      0.4636964049E-02
          0                 8           1             8    2     1       0.1867092219E-04       8    2    1         0.4849061570E-03      0.2074022956E-02
          0                 9           1             8    2     1       0.8391304539E-05       8    2    1         0.2179323614E-03      0.9279213977E-03

    ------------------------------------------------
       NWT REQUIRED            9 OUTER ITERATIONS 
       AND A TOTAL OF         14 INNER ITERATIONS.
    ------------------------------------------------

 NO OUTPUT CONTROL FOR STRESS PERIOD   22   TIME STEP    6
 
 SOLVING FOR HEAD 
                                                   Max.-Head-Change                         Max.-Flux-Residual
  Residual-Control   Outer-Iter.   Inner-Iter.     Column Row Layer    Maximum-Head-Change  Column Row Layer    Maximum-Flux-Residual          L2-NORM 
          0                 1           2             1   13     1       0.1764644105E-01       1   13    1         0.9592877138E+00      0.2424446958E+01
          0                 2           2             8    2     1       0.2264454384E-02       1   13    1        -0.9253604134E-01      0.3895951438E+00
          0                 3           2             8    2     1       0.1017722498E-02       8    2    1         0.2643138301E-01      0.1230453112E+00
          0                 4           2             8    2     1       0.4573986028E-03       8    2    1         0.1187915741E-01      0.5224187876E-01
          0                 5           2             8    2     1       0.2055701000E-03       8    2    1         0.5338890812E-02      0.2318580157E-01
          0                 6           1             8    2     1       0.9238994493E-04       8    2    1         0.2399474235E-02      0.1035457508E-01
          0                 7           1             8    2     1       0.4152303699E-04       8    2    1         0.1078402259E-02      0.4629811159E-02
          0                 8           1             8    2     1       0.1866178389E-04       8    2    1         0.4846688744E-03      0.2070978705E-02
          0                 9           1             8    2     1       0.8387196465E-05       8    2    1         0.2178256909E-03      0.9266187971E-03

    ------------------------------------------------
       NWT REQUIRED            9 OUTER ITERATIONS 
       AND A TOTAL OF         14 INNER ITERATIONS.
    ------------------------------------------------

 NO OUTPUT CONTROL FOR STRESS PERIOD   22   TIME STEP    7
 
 SOLVING FOR HEAD 
                                                   Max.-Head-Change                         Max.-Flux-Residual
  Residual-Control   Outer-Iter.   Inner-Iter.     Column Row Layer    Maximum-Head-Change  Column Row Layer    Maximum-Flux-Residual          L2-NORM 
          0                 1           2             1   13     1       0.1690108381E-01       1   13    1         0.9189353210E+00      0.2327303928E+01
          0                 2           2             8    2     1       0.2263349207E-02       1   13    1        -0.8875341604E-01      0.3834934579E+00
          0                 3           2             8    2     1       0.1017225623E-02       8    2    1         0.2641848226E-01      0.1226903242E+00
          0                 4           2             8    2     1       0.4571752134E-03       8    2    1         0.1187335737E-01      0.5214884420E-01
          0                 5           2             8    2     1       0.2054696664E-03       8    2    1         0.5336283183E-02      0.2314763221E-01
          0                 6           1             8    2     1       0.9234479138E-04       8    2    1         0.2398301880E-02      0.1033848042E-01
          0                 7           1             8    2     1       0.4150273672E-04       8    2    1         0.1077875182E-02      0.4622974678E-02
          0                 8           1             8    2     1       0.1865265708E-04       8    2    1         0.4844319066E-03      0.2068058082E-02
          0                 9           1             8    2     1       0.8383093393E-05       8    2    1         0.2177191553E-03      0.9253650143E-03

    ------------------------------------------------
       NWT REQUIRED            9 OUTER ITERATIONS 
       AND A TOTAL OF         14 INNER ITERATIONS.
    ------------------------------------------------

 NO OUTPUT CONTROL FOR STRESS PERIOD   22   TIME STEP    8
 
 SOLVING FOR HEAD 
                                                   Max.-Head-Change                         Max.-Flux-Residual
  Residual-Control   Outer-Iter.   Inner-Iter.     Column Row Layer    Maximum-Head-Change  Column Row Layer    Maximum-Flux-Residual          L2-NORM 
          0                 1           2             1   13     1       0.1618263468E-01       1   13    1         0.8800252561E+00      0.2238733119E+01
          0                 2           2             8    2     1       0.2262246271E-02       1   13    1        -0.8509421367E-01      0.3780259711E+00
          0                 3           2             8    2     1       0.1016729804E-02       8    2    1         0.2640560788E-01      0.1223592871E+00
          0                 4           2             8    2     1       0.4569523214E-03       8    2    1         0.1186756977E-01      0.5205936709E-01
          0                 5           2             8    2     1       0.2053694666E-03       8    2    1         0.5333681400E-02      0.2311092576E-01
          0                 6           1             8    2     1       0.9229974713E-04       8    2    1         0.2397132263E-02      0.1032302968E-01
          0                 7           1             8    2     1       0.4148248723E-04       8    2    1         0.1077349390E-02      0.4616420397E-02
          0                 8           1             8    2     1       0.1864355404E-04       8    2    1         0.4841955425E-03      0.2065259952E-02
          0                 9           1             8    2     1       0.8379001326E-05       8    2    1         0.2176129006E-03      0.9241652531E-03

    ------------------------------------------------
       NWT REQUIRED            9 OUTER ITERATIONS 
       AND A TOTAL OF         14 INNER ITERATIONS.
    ------------------------------------------------

 NO OUTPUT CONTROL FOR STRESS PERIOD   22   TIME STEP    9
 
 SOLVING FOR HEAD 
                                                   Max.-Head-Change                         Max.-Flux-Residual
  Residual-Control   Outer-Iter.   Inner-Iter.     Column Row Layer    Maximum-Head-Change  Column Row Layer    Maximum-Flux-Residual          L2-NORM 
          0                 1           2             1   13     1       0.1549051233E-01       1   13    1         0.8425278143E+00      0.2158076948E+01
          0                 2           2             8    2     1       0.2261145241E-02       1   13    1        -0.8155862961E-01      0.3731339289E+00
          0                 3           2             8    2     1       0.1016234767E-02       8    2    1         0.2639275541E-01      0.1220514501E+00
          0                 4           2             8    2     1       0.4567297468E-03       8    2    1         0.1186179114E-01      0.5197327668E-01
          0                 5           2             8    2     1       0.2052693942E-03       8    2    1         0.5331083248E-02      0.2307543437E-01
          0                 6           1             8    2     1       0.9225475341E-04       8    2    1         0.2395964100E-02      0.1030804434E-01
          0                 7           1             8    2     1       0.4146225750E-04       8    2    1         0.1076824169E-02      0.4610045418E-02
          0                 8           1             8    2     1       0.1863445875E-04       8    2    1         0.4839593954E-03      0.2062531431E-02
          0                 9           1             8    2     1       0.8374911761E-05       8    2    1         0.2175067235E-03      0.9229898368E-03

    ------------------------------------------------
       NWT REQUIRED            9 OUTER ITERATIONS 
       AND A TOTAL OF         14 INNER ITERATIONS.
    ------------------------------------------------

 NO OUTPUT CONTROL FOR STRESS PERIOD   22   TIME STEP   10
 
 SOLVING FOR HEAD 
                                                   Max.-Head-Change                         Max.-Flux-Residual
  Residual-Control   Outer-Iter.   Inner-Iter.     Column Row Layer    Maximum-Head-Change  Column Row Layer    Maximum-Flux-Residual          L2-NORM 
          0                 1           2             1   13     1       0.1482412385E-01       1   13    1         0.8064124701E+00      0.2084619034E+01
          0                 2           2             8    2     1       0.2260046263E-02       1   13    1        -0.7814300000E-01      0.3687457968E+00
          0                 3           2             8    2     1       0.1015740680E-02       8    2    1         0.2637992700E-01      0.1217651314E+00
          0                 4           2             8    2     1       0.4565076112E-03       8    2    1         0.1185602365E-01      0.5189081118E-01
          0                 5           2             8    2     1       0.2051695254E-03       8    2    1         0.5328490263E-02      0.2304115532E-01
          0                 6           1             8    2     1       0.9220985372E-04       8    2    1         0.2394798328E-02      0.1029347657E-01
          0                 7           1             8    2     1       0.4144207129E-04       8    2    1         0.1076300054E-02      0.4603811354E-02
          0                 8           1             8    2     1       0.1862538297E-04       8    2    1         0.4837237591E-03      0.2059849123E-02
          0                 9           1             8    2     1       0.8370831449E-05       8    2    1         0.2174007861E-03      0.9218303139E-03

    ------------------------------------------------
       NWT REQUIRED            9 OUTER ITERATIONS 
       AND A TOTAL OF         14 INNER ITERATIONS.
    ------------------------------------------------

 NO OUTPUT CONTROL FOR STRESS PERIOD   22   TIME STEP   11
 
 SOLVING FOR HEAD 
                                                   Max.-Head-Change                         Max.-Flux-Residual
  Residual-Control   Outer-Iter.   Inner-Iter.     Column Row Layer    Maximum-Head-Change  Column Row Layer    Maximum-Flux-Residual          L2-NORM 
          0                 1           2             1   13     1       0.1418285793E-01       1   13    1         0.7716485565E+00      0.2017818481E+01
          0                 2           2             8    2     1       0.2258903018E-02       1   13    1        -0.7484701118E-01      0.3648479620E+00
          0                 3           2             8    2     1       0.1015226796E-02       8    2    1         0.2636658238E-01      0.1215141638E+00
          0                 4           2             8    2     1       0.4562766222E-03       8    2    1         0.1185002528E-01      0.5181758441E-01
          0                 5           2             8    2     1       0.2050656963E-03       8    2    1         0.5325794018E-02      0.2301032705E-01
          0                 6           1             8    2     1       0.9216318300E-04       8    2    1         0.2393586377E-02      0.1028025582E-01
          0                 7           1             8    2     1       0.4142109323E-04       8    2    1         0.1075755286E-02      0.4598118631E-02
          0                 8           1             8    2     1       0.1861595329E-04       8    2    1         0.4834788834E-03      0.2057389129E-02
          0                 9           1             8    2     1       0.8366592817E-05       8    2    1         0.2172907154E-03      0.9207635371E-03

    ------------------------------------------------
       NWT REQUIRED            9 OUTER ITERATIONS 
       AND A TOTAL OF         14 INNER ITERATIONS.
    ------------------------------------------------

 NO OUTPUT CONTROL FOR STRESS PERIOD   22   TIME STEP   12
 
 SOLVING FOR HEAD 
                                                   Max.-Head-Change                         Max.-Flux-Residual
  Residual-Control   Outer-Iter.   Inner-Iter.     Column Row Layer    Maximum-Head-Change  Column Row Layer    Maximum-Flux-Residual          L2-NORM 
          0                 1           2             1   13     1       0.1356606178E-01       1   13    1         0.7382040055E+00      0.1957068621E+01
          0                 2           2             8    2     1       0.2257808557E-02       1   13    1        -0.7166848155E-01      0.3613452030E+00
          0                 3           2             8    2     1       0.1014734740E-02       8    2    1         0.2635380671E-01      0.1212765175E+00
          0                 4           2             8    2     1       0.4560554007E-03       8    2    1         0.1184428151E-01      0.5174608325E-01
          0                 5           2             8    2     1       0.2049662384E-03       8    2    1         0.5323211697E-02      0.2298014536E-01
          0                 6           1             8    2     1       0.9211846790E-04       8    2    1         0.2392425399E-02      0.1026728138E-01
          0                 7           1             8    2     1       0.4140098980E-04       8    2    1         0.1075233329E-02      0.4592513333E-02
          0                 8           1             8    2     1       0.1860691528E-04       8    2    1         0.4832442242E-03      0.2054957778E-02
          0                 9           1             8    2     1       0.8362529513E-05       8    2    1         0.2171852162E-03      0.9197052401E-03

    ------------------------------------------------
       NWT REQUIRED            9 OUTER ITERATIONS 
       AND A TOTAL OF         14 INNER ITERATIONS.
    ------------------------------------------------

 NO OUTPUT CONTROL FOR STRESS PERIOD   22   TIME STEP   13
 
 SOLVING FOR HEAD 
                                                   Max.-Head-Change                         Max.-Flux-Residual
  Residual-Control   Outer-Iter.   Inner-Iter.     Column Row Layer    Maximum-Head-Change  Column Row Layer    Maximum-Flux-Residual          L2-NORM 
          0                 1           2             1   13     1       0.1297309529E-01       1   13    1         0.7060386028E+00      0.1901743316E+01
          0                 2           2             8    2     1       0.2256716128E-02       5   13    1        -0.6887539152E-01      0.3581601827E+00
          0                 3           2             8    2     1       0.1014243599E-02       8    2    1         0.2634105477E-01      0.1210449216E+00
          0                 4           2             8    2     1       0.4558345902E-03       8    2    1         0.1183854841E-01      0.5167499819E-01
          0                 5           2             8    2     1       0.2048669650E-03       8    2    1         0.5320634179E-02      0.2295019137E-01
          0                 6           1             8    2     1       0.9207383633E-04       8    2    1         0.2391266588E-02      0.1025438716E-01
          0                 7           1             8    2     1       0.4138092414E-04       8    2    1         0.1074712342E-02      0.4586926965E-02
          0                 8           1             8    2     1       0.1859789377E-04       8    2    1         0.4830099948E-03      0.2052526210E-02
          0                 9           1             8    2     1       0.8358473713E-05       8    2    1         0.2170799131E-03      0.9186434429E-03

    ------------------------------------------------
       NWT REQUIRED            9 OUTER ITERATIONS 
       AND A TOTAL OF         14 INNER ITERATIONS.
    ------------------------------------------------

 NO OUTPUT CONTROL FOR STRESS PERIOD   22   TIME STEP   14
 
 SOLVING FOR HEAD 
                                                   Max.-Head-Change                         Max.-Flux-Residual
  Residual-Control   Outer-Iter.   Inner-Iter.     Column Row Layer    Maximum-Head-Change  Column Row Layer    Maximum-Flux-Residual          L2-NORM 
          0                 1           2             1   13     1       0.1240331498E-01       1   13    1         0.6751224439E+00      0.1851203145E+01
          0                 2           2             8    2     1       0.2255625733E-02       5   13    1        -0.6645101872E-01      0.3553008914E+00
          0                 3           2             8    2     1       0.1013753374E-02       8    2    1         0.2632832657E-01      0.1208420662E+00
          0                 4           2             8    2     1       0.4556141926E-03       8    2    1         0.1183282601E-01      0.5161287968E-01
          0                 5           2             8    2     1       0.2047678778E-03       8    2    1         0.5318061470E-02      0.2292381671E-01
          0                 6           1             8    2     1       0.9202928805E-04       8    2    1         0.2390109936E-02      0.1024296669E-01
          0                 7           1             8    2     1       0.4136089600E-04       8    2    1         0.1074192334E-02      0.4581963494E-02
          0                 8           1             8    2     1       0.1858888977E-04       8    2    1         0.4827762117E-03      0.2050352854E-02
          0                 9           1             8    2     1       0.8354425665E-05       8    2    1         0.2169748070E-03      0.9176905783E-03

    ------------------------------------------------
       NWT REQUIRED            9 OUTER ITERATIONS 
       AND A TOTAL OF         14 INNER ITERATIONS.
    ------------------------------------------------

 NO OUTPUT CONTROL FOR STRESS PERIOD   22   TIME STEP   15
 
 SOLVING FOR HEAD 
                                                   Max.-Head-Change                         Max.-Flux-Residual
  Residual-Control   Outer-Iter.   Inner-Iter.     Column Row Layer    Maximum-Head-Change  Column Row Layer    Maximum-Flux-Residual          L2-NORM 
          0                 1           2             5   13     1       0.1189970281E-01       1   13    1         0.6454248185E+00      0.1805466984E+01
          0                 2           2             8    2     1       0.2254490932E-02       5   13    1        -0.6410230306E-01      0.3527173778E+00
          0                 3           2             8    2     1       0.1013243260E-02       8    2    1         0.2631508039E-01      0.1206330826E+00
          0                 4           2             8    2     1       0.4553848865E-03       8    2    1         0.1182687160E-01      0.5154512030E-01
          0                 5           2             8    2     1       0.2046648008E-03       8    2    1         0.5315384855E-02      0.2289527427E-01
          0                 6           1             8    2     1       0.9198295273E-04       8    2    1         0.2388906746E-02      0.1023073243E-01
          0                 7           1             8    2     1       0.4134006750E-04       8    2    1         0.1073651479E-02      0.4576679020E-02
          0                 8           1             8    2     1       0.1857952712E-04       8    2    1         0.4825330854E-03      0.2048067093E-02
          0                 9           1             8    2     1       0.8350216797E-05       8    2    1         0.2168655161E-03      0.9166957940E-03

    ------------------------------------------------
       NWT REQUIRED            9 OUTER ITERATIONS 
       AND A TOTAL OF         14 INNER ITERATIONS.
    ------------------------------------------------

 NO OUTPUT CONTROL FOR STRESS PERIOD   22   TIME STEP   16
 
 SOLVING FOR HEAD 
                                                   Max.-Head-Change                         Max.-Flux-Residual
  Residual-Control   Outer-Iter.   Inner-Iter.     Column Row Layer    Maximum-Head-Change  Column Row Layer    Maximum-Flux-Residual          L2-NORM 
          0                 1           2             5   13     1       0.1147638314E-01       5   13    1         0.6184602415E+00      0.1763844361E+01
          0                 2           2             8    2     1       0.2253404940E-02       5   13    1        -0.6182841121E-01      0.3503818342E+00
          0                 3           2             8    2     1       0.1012755014E-02       8    2    1         0.2630240360E-01      0.1204353536E+00
          0                 4           2             8    2     1       0.4551653788E-03       8    2    1         0.1182117230E-01      0.5147975274E-01
          0                 5           2             8    2     1       0.2045661132E-03       8    2    1         0.5312822536E-02      0.2286765553E-01
          0                 6           1             8    2     1       0.9193858478E-04       8    2    1         0.2387754767E-02      0.1021886786E-01
          0                 7           1             8    2     1       0.4132012015E-04       8    2    1         0.1073133561E-02      0.4571548060E-02
          0                 8           1             8    2     1       0.1857055913E-04       8    2    1         0.4823002368E-03      0.2045836062E-02
          0                 9           1             8    2     1       0.8346184757E-05       8    2    1         0.2167608270E-03      0.9157214507E-03

    ------------------------------------------------
       NWT REQUIRED            9 OUTER ITERATIONS 
       AND A TOTAL OF         14 INNER ITERATIONS.
    ------------------------------------------------

 NO OUTPUT CONTROL FOR STRESS PERIOD   22   TIME STEP   17
 
 SOLVING FOR HEAD 
                                                   Max.-Head-Change                         Max.-Flux-Residual
  Residual-Control   Outer-Iter.   Inner-Iter.     Column Row Layer    Maximum-Head-Change  Column Row Layer    Maximum-Flux-Residual          L2-NORM 
          0                 1           2             5   13     1       0.1106724986E-01       5   13    1         0.5964640644E+00      0.1726035577E+01
          0                 2           2             8    2     1       0.2252274441E-02       5   13    1        -0.5962962717E-01      0.3483187331E+00
          0                 3           2             8    2     1       0.1012246813E-02       8    2    1         0.2628920752E-01      0.1202739967E+00
          0                 4           2             8    2     1       0.4549369239E-03       8    2    1         0.1181524018E-01      0.5142624084E-01
          0                 5           2             8    2     1       0.2044634146E-03       8    2    1         0.5310155836E-02      0.2284431592E-01
          0                 6           1             8    2     1       0.9189241779E-04       8    2    1         0.2386555993E-02      0.1020856034E-01
          0                 7           1             8    2     1       0.4129936668E-04       8    2    1         0.1072594677E-02      0.4566988152E-02
          0                 8           1             8    2     1       0.1856122974E-04       8    2    1         0.4820579910E-03      0.2043816604E-02
          0                 9           1             8    2     1       0.8341990895E-05       8    2    1         0.2166519307E-03      0.9148261154E-03

    ------------------------------------------------
       NWT REQUIRED            9 OUTER ITERATIONS 
       AND A TOTAL OF         14 INNER ITERATIONS.
    ------------------------------------------------

 NO OUTPUT CONTROL FOR STRESS PERIOD   22   TIME STEP   18
 
 SOLVING FOR HEAD 
                                                   Max.-Head-Change                         Max.-Flux-Residual
  Residual-Control   Outer-Iter.   Inner-Iter.     Column Row Layer    Maximum-Head-Change  Column Row Layer    Maximum-Flux-Residual          L2-NORM 
          0                 1           2             5   13     1       0.1067202448E-01       5   13    1         0.5752033020E+00      0.1691688508E+01
          0                 2           2             8    2     1       0.2251192656E-02       8    2    1         0.5846601668E-01      0.3464052550E+00
          0                 3           2             8    2     1       0.1011760432E-02       8    2    1         0.2627657971E-01      0.1200946633E+00
          0                 4           2             8    2     1       0.4547182425E-03       8    2    1         0.1180956260E-01      0.5136442551E-01
          0                 5           2             8    2     1       0.2043650935E-03       8    2    1         0.5307603140E-02      0.2281804966E-01
          0                 6           1             8    2     1       0.9184821216E-04       8    2    1         0.2385408278E-02      0.1019723959E-01
          0                 7           1             8    2     1       0.4127949111E-04       8    2    1         0.1072078648E-02      0.4562079185E-02
          0                 8           1             8    2     1       0.1855229352E-04       8    2    1         0.4818259799E-03      0.2041677674E-02
          0                 9           1             8    2     1       0.8337973361E-05       8    2    1         0.2165476170E-03      0.9138909355E-03

    ------------------------------------------------
       NWT REQUIRED            9 OUTER ITERATIONS 
       AND A TOTAL OF         14 INNER ITERATIONS.
    ------------------------------------------------

 NO OUTPUT CONTROL FOR STRESS PERIOD   22   TIME STEP   19
 
 SOLVING FOR HEAD 
                                                   Max.-Head-Change                         Max.-Flux-Residual
  Residual-Control   Outer-Iter.   Inner-Iter.     Column Row Layer    Maximum-Head-Change  Column Row Layer    Maximum-Flux-Residual          L2-NORM 
          0                 1           2             5   13     1       0.1029124501E-01       5   13    1         0.5546640520E+00      0.1660594093E+01
          0                 2           2             8    2     1       0.2250066363E-02       8    2    1         0.5843677097E-01      0.3447337784E+00
          0                 3           2             8    2     1       0.1011254124E-02       8    2    1         0.2626343274E-01      0.1199404406E+00
          0                 4           2             8    2     1       0.4544906400E-03       8    2    1         0.1180365258E-01      0.5130894923E-01
          0                 5           2             8    2     1       0.2042627783E-03       8    2    1         0.5304946385E-02      0.2279356872E-01
          0                 6           1             8    2     1       0.9180221799E-04       8    2    1         0.2384213979E-02      0.1018642401E-01
          0                 7           1             8    2     1       0.4125881543E-04       8    2    1         0.1071541772E-02      0.4557315374E-02
          0                 8           1             8    2     1       0.1854299915E-04       8    2    1         0.4815846370E-03      0.2039582067E-02
          0                 9           1             8    2     1       0.8333795006E-05       8    2    1         0.2164391245E-03      0.9129686091E-03

    ------------------------------------------------
       NWT REQUIRED            9 OUTER ITERATIONS 
       AND A TOTAL OF         14 INNER ITERATIONS.
    ------------------------------------------------

 NO OUTPUT CONTROL FOR STRESS PERIOD   22   TIME STEP   20
 
 SOLVING FOR HEAD 
                                                   Max.-Head-Change                         Max.-Flux-Residual
  Residual-Control   Outer-Iter.   Inner-Iter.     Column Row Layer    Maximum-Head-Change  Column Row Layer    Maximum-Flux-Residual          L2-NORM 
          0                 1           2             5   13     1       0.9933417203E-02       5   13    1         0.5349812767E+00      0.1633063211E+01
          0                 2           2             8    2     1       0.2248988907E-02       8    2    1         0.5840879585E-01      0.3431968394E+00
          0                 3           2             8    2     1       0.1010769719E-02       8    2    1         0.2625085560E-01      0.1197776277E+00
          0                 4           2             8    2     1       0.4542728600E-03       8    2    1         0.1179799812E-01      0.5125075623E-01
          0                 5           2             8    2     1       0.2041648686E-03       8    2    1         0.5302404241E-02      0.2276860988E-01
          0                 6           1             8    2     1       0.9175819945E-04       8    2    1         0.2383071074E-02      0.1017558986E-01
          0                 7           1             8    2     1       0.4123902539E-04       8    2    1         0.1071027944E-02      0.4552591805E-02
          0                 8           1             8    2     1       0.1853410195E-04       8    2    1         0.4813536297E-03      0.2037515650E-02
          0                 9           1             8    2     1       0.8329795230E-05       8    2    1         0.2163352712E-03      0.9120630122E-03

    ------------------------------------------------
       NWT REQUIRED            9 OUTER ITERATIONS 
       AND A TOTAL OF         14 INNER ITERATIONS.
    ------------------------------------------------

 NO OUTPUT CONTROL FOR STRESS PERIOD   22   TIME STEP   21
 
 SOLVING FOR HEAD 
                                                   Max.-Head-Change                         Max.-Flux-Residual
  Residual-Control   Outer-Iter.   Inner-Iter.     Column Row Layer    Maximum-Head-Change  Column Row Layer    Maximum-Flux-Residual          L2-NORM 
          0                 1           2             5   13     1       0.9589469903E-02       5   13    1         0.5164946982E+00      0.1607333157E+01
          0                 2           2             8    2     1       0.2247866805E-02       8    2    1         0.5837966023E-01      0.3417366480E+00
          0                 3           2             8    2     1       0.1010265269E-02       8    2    1         0.2623775744E-01      0.1196145252E+00
          0                 4           2             8    2     1       0.4540460806E-03       8    2    1         0.1179210974E-01      0.5119184930E-01
          0                 5           2             8    2     1       0.2040629181E-03       8    2    1         0.5299757075E-02      0.2274350506E-01
          0                 6           1             8    2     1       0.9171236735E-04       8    2    1         0.2381881024E-02      0.1016475736E-01
          0                 7           1             8    2     1       0.4121842099E-04       8    2    1         0.1070492946E-02      0.4547889766E-02
          0                 8           1             8    2     1       0.1852483884E-04       8    2    1         0.4811131189E-03      0.2035464709E-02
          0                 9           1             8    2     1       0.8325631131E-05       8    2    1         0.2162271508E-03      0.9111639883E-03

    ------------------------------------------------
       NWT REQUIRED            9 OUTER ITERATIONS 
       AND A TOTAL OF         14 INNER ITERATIONS.
    ------------------------------------------------

 NO OUTPUT CONTROL FOR STRESS PERIOD   22   TIME STEP   22
 
 SOLVING FOR HEAD 
                                                   Max.-Head-Change                         Max.-Flux-Residual
  Residual-Control   Outer-Iter.   Inner-Iter.     Column Row Layer    Maximum-Head-Change  Column Row Layer    Maximum-Flux-Residual          L2-NORM 
          0                 1           2             5   13     1       0.9257157182E-02       5   13    1         0.4986303853E+00      0.1584035986E+01
          0                 2           2             8    2     1       0.2246746999E-02       8    2    1         0.5835058290E-01      0.3404133784E+00
          0                 3           2             8    2     1       0.1009761879E-02       8    2    1         0.2622468622E-01      0.1194560420E+00
          0                 4           2             8    2     1       0.4538197906E-03       8    2    1         0.1178623379E-01      0.5113271360E-01
          0                 5           2             8    2     1       0.2039611934E-03       8    2    1         0.5297115639E-02      0.2271807860E-01
          0                 6           1             8    2     1       0.9166663830E-04       8    2    1         0.2380693608E-02      0.1015373678E-01
          0                 7           1             8    2     1       0.4119786462E-04       8    2    1         0.1069959165E-02      0.4543097674E-02
          0                 8           1             8    2     1       0.1851559798E-04       8    2    1         0.4808731638E-03      0.2033374617E-02
          0                 9           1             8    2     1       0.8321477037E-05       8    2    1         0.2161192827E-03      0.9102498604E-03

    ------------------------------------------------
       NWT REQUIRED            9 OUTER ITERATIONS 
       AND A TOTAL OF         14 INNER ITERATIONS.
    ------------------------------------------------

 NO OUTPUT CONTROL FOR STRESS PERIOD   22   TIME STEP   23
 
 SOLVING FOR HEAD 
                                                   Max.-Head-Change                         Max.-Flux-Residual
  Residual-Control   Outer-Iter.   Inner-Iter.     Column Row Layer    Maximum-Head-Change  Column Row Layer    Maximum-Flux-Residual          L2-NORM 
          0                 1           2             5   13     1       0.8935989498E-02       5   13    1         0.4813652692E+00      0.1562620941E+01
          0                 2           2             8    2     1       0.2245675929E-02       8    2    1         0.5832277483E-01      0.3391831846E+00
          0                 3           2             8    2     1       0.1009280318E-02       8    2    1         0.2621218349E-01      0.1193114310E+00
          0                 4           2             8    2     1       0.4536032775E-03       8    2    1         0.1178061248E-01      0.5107992301E-01
          0                 5           2             8    2     1       0.2038638477E-03       8    2    1         0.5294588264E-02      0.2269533442E-01
          0                 6           1             8    2     1       0.9162287137E-04       8    2    1         0.2379557288E-02      0.1014380368E-01
          0                 7           1             8    2     1       0.4117818688E-04       8    2    1         0.1069448270E-02      0.4538740111E-02
          0                 8           1             8    2     1       0.1850675106E-04       8    2    1         0.4806434634E-03      0.2031457263E-02
          0                 9           1             8    2     1       0.8317499271E-05       8    2    1         0.2160160038E-03      0.9094041329E-03

    ------------------------------------------------
       NWT REQUIRED            9 OUTER ITERATIONS 
       AND A TOTAL OF         14 INNER ITERATIONS.
    ------------------------------------------------

 NO OUTPUT CONTROL FOR STRESS PERIOD   22   TIME STEP   24
 
 SOLVING FOR HEAD 
                                                   Max.-Head-Change                         Max.-Flux-Residual
  Residual-Control   Outer-Iter.   Inner-Iter.     Column Row Layer    Maximum-Head-Change  Column Row Layer    Maximum-Flux-Residual          L2-NORM 
          0                 1           2             5   13     1       0.8625807804E-02       5   13    1         0.4646778459E+00      0.1543090877E+01
          0                 2           2             8    2     1       0.2244560205E-02       8    2    1         0.5829380471E-01      0.3380749230E+00
          0                 3           2             8    2     1       0.1008778737E-02       8    2    1         0.2619915978E-01      0.1191795669E+00
          0                 4           2             8    2     1       0.4533777884E-03       8    2    1         0.1177475758E-01      0.5103049077E-01
          0                 5           2             8    2     1       0.2037624777E-03       8    2    1         0.5291956155E-02      0.2267370077E-01
          0                 6           1             8    2     1       0.9157729988E-04       8    2    1         0.2378374008E-02      0.1013425173E-01
          0                 7           1             8    2     1       0.4115770004E-04       8    2    1         0.1068916321E-02      0.4534514478E-02
          0                 8           1             8    2     1       0.1849754097E-04       8    2    1         0.4804043222E-03      0.2029584233E-02
          0                 9           1             8    2     1       0.8313358683E-05       8    2    1         0.2159084970E-03      0.9085731212E-03

    ------------------------------------------------
       NWT REQUIRED            9 OUTER ITERATIONS 
       AND A TOTAL OF         14 INNER ITERATIONS.
    ------------------------------------------------

 NO OUTPUT CONTROL FOR STRESS PERIOD   22   TIME STEP   25
 
 SOLVING FOR HEAD 
                                                   Max.-Head-Change                         Max.-Flux-Residual
  Residual-Control   Outer-Iter.   Inner-Iter.     Column Row Layer    Maximum-Head-Change  Column Row Layer    Maximum-Flux-Residual          L2-NORM 
          0                 1           2             5   13     1       0.8326356283E-02       5   13    1         0.4485558656E+00      0.1525458259E+01
          0                 2           2             8    2     1       0.2243446772E-02       8    2    1         0.5826489276E-01      0.3370748833E+00
          0                 3           2             8    2     1       0.1008278214E-02       8    2    1         0.2618616295E-01      0.1190539737E+00
          0                 4           2             8    2     1       0.4531527883E-03       8    2    1         0.1176891511E-01      0.5098280594E-01
          0                 5           2             8    2     1       0.2036613333E-03       8    2    1         0.5289329782E-02      0.2265291003E-01
          0                 6           1             8    2     1       0.9153183245E-04       8    2    1         0.2377193370E-02      0.1012510302E-01
          0                 7           1             8    2     1       0.4113726071E-04       8    2    1         0.1068385584E-02      0.4530474412E-02
          0                 8           1             8    2     1       0.1848835289E-04       8    2    1         0.4801657406E-03      0.2027796821E-02
          0                 9           1             8    2     1       0.8309228599E-05       8    2    1         0.2158012490E-03      0.9077807472E-03

    ------------------------------------------------
       NWT REQUIRED            9 OUTER ITERATIONS 
       AND A TOTAL OF         14 INNER ITERATIONS.
    ------------------------------------------------

 NO OUTPUT CONTROL FOR STRESS PERIOD   22   TIME STEP   26
 
 SOLVING FOR HEAD 
                                                   Max.-Head-Change                         Max.-Flux-Residual
  Residual-Control   Outer-Iter.   Inner-Iter.     Column Row Layer    Maximum-Head-Change  Column Row Layer    Maximum-Flux-Residual          L2-NORM 
          0                 1           2             5   13     1       0.8037681528E-02       5   13    1         0.4330071771E+00      0.1509320808E+01
          0                 2           2             8    2     1       0.2242382087E-02       8    2    1         0.5823725039E-01      0.3361231081E+00
          0                 3           2             8    2     1       0.1007799525E-02       8    2    1         0.2617373476E-01      0.1189187457E+00
          0                 4           2             8    2     1       0.4529375667E-03       8    2    1         0.1176332731E-01      0.5093069274E-01
          0                 5           2             8    2     1       0.2035645686E-03       8    2    1         0.5286817483E-02      0.2263040879E-01
          0                 6           1             8    2     1       0.9148832638E-04       8    2    1         0.2376063829E-02      0.1011532412E-01
          0                 7           1             8    2     1       0.4111770053E-04       8    2    1         0.1067877741E-02      0.4526242569E-02
          0                 8           1             8    2     1       0.1847955848E-04       8    2    1         0.4799374131E-03      0.2025908428E-02
          0                 9           1             8    2     1       0.8305274593E-05       8    2    1         0.2156985925E-03      0.9069479288E-03

    ------------------------------------------------
       NWT REQUIRED            9 OUTER ITERATIONS 
       AND A TOTAL OF         14 INNER ITERATIONS.
    ------------------------------------------------

 NO OUTPUT CONTROL FOR STRESS PERIOD   22   TIME STEP   27
 
 SOLVING FOR HEAD 
                                                   Max.-Head-Change                         Max.-Flux-Residual
  Residual-Control   Outer-Iter.   Inner-Iter.     Column Row Layer    Maximum-Head-Change  Column Row Layer    Maximum-Flux-Residual          L2-NORM 
          0                 1           2             5   13     1       0.7759142035E-02       5   13    1         0.4179996278E+00      0.1494655893E+01
          0                 2           2             8    2     1       0.2241272836E-02       8    2    1         0.5820844701E-01      0.3352740977E+00
          0                 3           2             8    2     1       0.1007300883E-02       8    2    1         0.2616078675E-01      0.1187998626E+00
          0                 4           2             8    2     1       0.4527134109E-03       8    2    1         0.1175750677E-01      0.5088398080E-01
          0                 5           2             8    2     1       0.2034638036E-03       8    2    1         0.5284200969E-02      0.2260983792E-01
          0                 6           1             8    2     1       0.9144302952E-04       8    2    1         0.2374887625E-02      0.1010618671E-01
          0                 7           1             8    2     1       0.4109733799E-04       8    2    1         0.1067348998E-02      0.4522139111E-02
          0                 8           1             8    2     1       0.1847040467E-04       8    2    1         0.4796997248E-03      0.2024114039E-02
          0                 9           1             8    2     1       0.8301159767E-05       8    2    1         0.2155917466E-03      0.9061498887E-03

    ------------------------------------------------
       NWT REQUIRED            9 OUTER ITERATIONS 
       AND A TOTAL OF         14 INNER ITERATIONS.
    ------------------------------------------------

 NO OUTPUT CONTROL FOR STRESS PERIOD   22   TIME STEP   28
 
 SOLVING FOR HEAD 
                                                   Max.-Head-Change                         Max.-Flux-Residual
  Residual-Control   Outer-Iter.   Inner-Iter.     Column Row Layer    Maximum-Head-Change  Column Row Layer    Maximum-Flux-Residual          L2-NORM 
          0                 1           2             5   13     1       0.7490772857E-02       5   13    1         0.4035360735E+00      0.1481271186E+01
          0                 2           2             8    2     1       0.2240165744E-02       8    2    1         0.5817970098E-01      0.3344658660E+00
          0                 3           2             8    2     1       0.1006803184E-02       8    2    1         0.2614786381E-01      0.1186732095E+00
          0                 4           2             8    2     1       0.4524896678E-03       8    2    1         0.1175169720E-01      0.5083397571E-01
          0                 5           2             8    2     1       0.2033632189E-03       8    2    1         0.5281589246E-02      0.2258814365E-01
          0                 6           1             8    2     1       0.9139781094E-04       8    2    1         0.2373713511E-02      0.1009670704E-01
          0                 7           1             8    2     1       0.4107700996E-04       8    2    1         0.1066821172E-02      0.4517980878E-02
          0                 8           1             8    2     1       0.1846126636E-04       8    2    1         0.4794624400E-03      0.2022284263E-02
          0                 9           1             8    2     1       0.8297051693E-05       8    2    1         0.2154850726E-03      0.9053424586E-03

    ------------------------------------------------
       NWT REQUIRED            9 OUTER ITERATIONS 
       AND A TOTAL OF         14 INNER ITERATIONS.
    ------------------------------------------------

 NO OUTPUT CONTROL FOR STRESS PERIOD   22   TIME STEP   29
 
 SOLVING FOR HEAD 
                                                   Max.-Head-Change                         Max.-Flux-Residual
  Residual-Control   Outer-Iter.   Inner-Iter.     Column Row Layer    Maximum-Head-Change  Column Row Layer    Maximum-Flux-Residual          L2-NORM 
          0                 1           2             5   13     1       0.7227859662E-02       5   13    1         0.3893788738E+00      0.1468072234E+01
          0                 2           2             8    2     1       0.2239060822E-02       8    2    1         0.5815101126E-01      0.3336336015E+00
          0                 3           2             8    2     1       0.1006306461E-02       8    2    1         0.2613496621E-01      0.1185409327E+00
          0                 4           2             8    2     1       0.4522663642E-03       8    2    1         0.1174589902E-01      0.5078275463E-01
          0                 5           2             8    2     1       0.2032628316E-03       8    2    1         0.5278982647E-02      0.2256603130E-01
          0                 6           1             8    2     1       0.9135268166E-04       8    2    1         0.2372541705E-02      0.1008705535E-01
          0                 7           1             8    2     1       0.4105672195E-04       8    2    1         0.1066294380E-02      0.4513748940E-02
          0                 8           1             8    2     1       0.1845214556E-04       8    2    1         0.4792256149E-03      0.2020422864E-02
          0                 9           1             8    2     1       0.8292951122E-05       8    2    1         0.2153786089E-03      0.9045218576E-03

    ------------------------------------------------
       NWT REQUIRED            9 OUTER ITERATIONS 
       AND A TOTAL OF         14 INNER ITERATIONS.
    ------------------------------------------------

 NO OUTPUT CONTROL FOR STRESS PERIOD   22   TIME STEP   30



 STREAM LISTING     PERIOD     22   STEP       30

 LAYER ROW COL. STREAM  RCH.  FLOW INTO     FLOW TO   FLOW OUT OF   OVRLND.     DIRECT     STREAM       STREAM     STREAM     STREAM   STREAMBED  STREAMBED
                SEG.NO.  NO.  STRM. RCH.    AQUIFER    STRM. RCH.    RUNOFF     PRECIP       ET          HEAD       DEPTH      WIDTH   CONDCTNC.   GRADIENT

   1    1    1     1     1    3.4452E+00  8.2729E-02   3.3625E+00  0.000E+00  0.000E+00  0.000E+00  1.09371E+03  6.618E-01  5.021E+00  2.259E-02  1.221E+00
   1    2    2     1     2    3.3625E+00  1.2710E-01   3.2354E+00  0.000E+00  0.000E+00  0.000E+00  1.08871E+03  6.546E-01  4.968E+00  3.478E-02  1.218E+00
   1    3    3     1     3    3.2354E+00  1.0738E-01   3.1280E+00  0.000E+00  0.000E+00  0.000E+00  1.08307E+03  6.464E-01  4.908E+00  2.945E-02  1.215E+00
   1    3    4     1     4    3.1280E+00  9.8043E-02   3.0300E+00  0.000E+00  0.000E+00  0.000E+00  1.07805E+03  6.391E-01  4.854E+00  2.694E-02  1.213E+00
   1    4    5     2     1    1.0300E+00  0.0000E+00   1.0300E+00  0.000E+00  0.000E+00  0.000E+00  1.07211E+03  1.782E-01  1.200E+01  0.000E+00  1.059E+00
   1    5    6     2     2    1.0300E+00  0.0000E+00   1.0300E+00  0.000E+00  0.000E+00  0.000E+00  1.06669E+03  1.782E-01  1.200E+01  0.000E+00  1.059E+00
   1    6    6     2     3    1.0300E+00  0.0000E+00   1.0300E+00  0.000E+00  0.000E+00  0.000E+00  1.06197E+03  1.782E-01  1.200E+01  0.000E+00  1.059E+00
   1    7    6     2     4    1.0300E+00  0.0000E+00   1.0300E+00  0.000E+00  0.000E+00  0.000E+00  1.05725E+03  1.782E-01  1.200E+01  0.000E+00  1.059E+00
   1    8    6     2     5    1.0300E+00  0.0000E+00   1.0300E+00  0.000E+00  0.000E+00  0.000E+00  1.05254E+03  1.782E-01  1.200E+01  0.000E+00  1.059E+00
   1    3    5     3     1    2.0000E+00  2.8252E-01   1.7175E+00  0.000E+00  0.000E+00  0.000E+00  1.07555E+03  1.909E+00  9.636E+00  7.227E-02  1.955E+00
   1    3    6     3     2    1.7175E+00  2.4905E-01   1.4684E+00  0.000E+00  0.000E+00  0.000E+00  1.07264E+03  1.727E+00  8.909E+00  6.682E-02  1.864E+00
   1    3    7     3     3    1.4684E+00  1.9718E-01   1.2712E+00  0.000E+00  0.000E+00  0.000E+00  1.06987E+03  1.555E+00  8.218E+00  5.547E-02  1.777E+00
   1    4    8     3     4    1.2712E+00  2.2567E-01   1.0456E+00  0.000E+00  0.000E+00  0.000E+00  1.06682E+03  1.364E+00  7.455E+00  6.709E-02  1.682E+00
   1    5    8     3     5    1.0456E+00  1.5790E-01   8.8768E-01  0.000E+00  0.000E+00  0.000E+00  1.06362E+03  1.164E+00  6.655E+00  4.991E-02  1.582E+00
   1    6    8     3     6    8.8768E-01  5.5980E-02   8.3170E-01  0.000E+00  0.000E+00  0.000E+00  1.06158E+03  1.036E+00  6.145E+00  1.844E-02  1.518E+00
   1    5   10     4     1    1.0000E+01  0.0000E+00   1.0000E+01  0.000E+00  0.000E+00  0.000E+00  1.07837E+03  6.385E-01  1.000E+01  0.000E+00  1.213E+00
   1    5    9     4     2    1.0000E+01  0.0000E+00   1.0000E+01  0.000E+00  0.000E+00  0.000E+00  1.07155E+03  6.385E-01  1.000E+01  0.000E+00  1.213E+00
   1    6    8     4     3    1.0000E+01  0.0000E+00   1.0000E+01  0.000E+00  0.000E+00  0.000E+00  1.06382E+03  6.385E-01  1.000E+01  0.000E+00  1.213E+00
   1    6    8     5     1    1.0832E+01  2.3262E-01   1.0599E+01  0.000E+00  0.000E+00  0.000E+00  1.05869E+03  6.881E-01  1.577E+01  6.307E-02  1.229E+00
   1    7    7     5     2    1.0599E+01  2.8607E-01   1.0313E+01  0.000E+00  0.000E+00  0.000E+00  1.05418E+03  6.822E-01  1.554E+01  7.769E-02  1.227E+00
   1    8    7     5     3    1.0313E+01  1.9716E-01   1.0116E+01  0.000E+00  0.000E+00  0.000E+00  1.04993E+03  6.766E-01  1.532E+01  5.363E-02  1.226E+00
   1    8    6     5     4    1.0116E+01  1.3929E-01   9.9766E+00  0.000E+00  0.000E+00  0.000E+00  1.04692E+03  6.727E-01  1.517E+01  3.792E-02  1.224E+00
   1    9    6     6     1    1.1007E+01  0.0000E+00   1.1007E+01  0.000E+00  0.000E+00  0.000E+00  1.04347E+03  7.464E-01  1.200E+01  0.000E+00  1.249E+00
   1   10    7     6     2    1.1007E+01  0.0000E+00   1.1007E+01  0.000E+00  0.000E+00  0.000E+00  1.03893E+03  7.464E-01  1.200E+01  0.000E+00  1.249E+00
   1   11    7     6     3    1.1007E+01  0.0000E+00   1.1007E+01  0.000E+00  0.000E+00  0.000E+00  1.03438E+03  7.464E-01  1.200E+01  0.000E+00  1.249E+00
   1   12    7     6     4    1.1007E+01  0.0000E+00   1.1007E+01  0.000E+00  0.000E+00  0.000E+00  1.02984E+03  7.464E-01  1.200E+01  0.000E+00  1.249E+00
   1   13    7     6     5    1.1007E+01  0.0000E+00   1.1007E+01  0.000E+00  0.000E+00  0.000E+00  1.02666E+03  7.464E-01  1.200E+01  0.000E+00  3.375E-02
   1   14    9     7     1    1.5000E+02  1.2830E+00   1.4872E+02  0.000E+00  0.000E+00  0.000E+00  1.03987E+03  2.288E+00  5.530E+01  5.593E-01  7.646E-01
   1   13    8     7     2    1.4872E+02  1.9151E+00   1.4680E+02  0.000E+00  0.000E+00  0.000E+00  1.03478E+03  2.279E+00  5.526E+01  6.148E-01  1.038E+00
   1   13    7     7     3    1.4680E+02  1.7504E+00   1.4505E+02  0.000E+00  0.000E+00  0.000E+00  1.02969E+03  2.270E+00  5.521E+01  5.584E-01  1.045E+00
   1   13    6     8     1    1.5606E+02  1.2201E+00   1.5484E+02  0.000E+00  0.000E+00  0.000E+00  1.02473E+03  2.855E+00  4.139E+01  4.218E-01  9.641E-01
   1   13    5     8     2    1.5484E+02  5.0680E-01   1.5433E+02  0.000E+00  0.000E+00  0.000E+00  1.01847E+03  2.849E+00  4.131E+01  4.209E-01  4.013E-01
   1   13    4     8     3    1.5433E+02 -1.3527E+00   1.5568E+02  0.000E+00  0.000E+00  0.000E+00  1.01223E+03  2.852E+00  4.135E+01  4.214E+00 -1.070E-01
   1   13    3     8     4    1.5568E+02 -2.9718E+00   1.5866E+02  0.000E+00  0.000E+00  0.000E+00  1.00599E+03  2.867E+00  4.157E+01  4.236E+00 -2.339E-01
   1   13    2     8     5    1.5866E+02 -1.8671E+00   1.6052E+02  0.000E+00  0.000E+00  0.000E+00  9.99758E+02  2.883E+00  4.180E+01  4.260E+00 -1.461E-01
   1   13    1     8     6    1.6052E+02 -1.1783E+00   1.6170E+02  0.000E+00  0.000E+00  0.000E+00  9.94768E+02  2.893E+00  4.195E+01  2.565E+00 -1.531E-01
   1    6    8     9     1    0.0000E+00  0.0000E+00   0.0000E+00  0.000E+00  0.000E+00  0.000E+00  1.07850E+03  0.000E+00  4.000E+00  0.000E+00  1.000E+00





UNSATURATED ZONE PACKAGE VOLUMETRIC BUDGET FOR  TIME STEP    30 STRESS PERIOD   22
  ------------------------------------------------------------------------------



     CUMULATIVE VOLUMES      L**3       RATES FOR THIS TIME STEP      L**3/T
     ------------------                 ------------------------

           IN:                                      IN:
           ---                                      ---
        INFILTRATION =    91005221.6921          INFILTRATION =           0.8475

          OUT:                                     OUT:
          ----                                     ----
              UZF ET =   619174814.2002                UZF ET =           0.8475
        UZF RECHARGE =  1319422170.2110          UZF RECHARGE =          19.6724

            IN - OUT = -1847591762.7191              IN - OUT =         -19.6724

          STORAGE:                                 STORAGE:
          --------                                 --------
      STORAGE CHANGE = -1847582031.9720        STORAGE CHANGE =         -19.6724

 PERCENT DISCREPANCY IS DIFFERENCE BETWEEN IN-OUT MINUS CHANGE IN STORAGE
 DIVIDED BY THE AVERAGE OF IN AND OUT TIMES 100

 PERCENT DISCREPANCY =          -0.00     PERCENT DISCREPANCY =           0.00






1
  VOLUMETRIC BUDGET FOR ENTIRE MODEL AT END OF TIME STEP   30, STRESS PERIOD  22
  ------------------------------------------------------------------------------

     CUMULATIVE VOLUMES      L**3       RATES FOR THIS TIME STEP      L**3/T
     ------------------                 ------------------------

           IN:                                      IN:
           ---                                      ---
             STORAGE =    67353432.0000               STORAGE =           0.4345
       CONSTANT HEAD =           0.0000         CONSTANT HEAD =           0.0000
               WELLS =           0.0000                 WELLS =           0.0000
     HEAD DEP BOUNDS =    16376368.0000       HEAD DEP BOUNDS =           0.2822
      STREAM LEAKAGE =   576784640.0000        STREAM LEAKAGE =           9.1141
        UZF RECHARGE =  1319420928.0000          UZF RECHARGE =          19.6724
               GW ET =           0.0000                 GW ET =           0.0000
     SURFACE LEAKAGE =           0.0000       SURFACE LEAKAGE =           0.0000

            TOTAL IN =  1979935360.0000              TOTAL IN =          29.5031

          OUT:                                     OUT:
          ----                                     ----
             STORAGE =  1332850560.0000               STORAGE =          18.2648
       CONSTANT HEAD =           0.0000         CONSTANT HEAD =           0.0000
               WELLS =     1235968.6250                 WELLS =           0.0000
     HEAD DEP BOUNDS =    16530834.0000       HEAD DEP BOUNDS =           0.2747
      STREAM LEAKAGE =   476350624.0000        STREAM LEAKAGE =           7.3699
        UZF RECHARGE =           0.0000          UZF RECHARGE =           0.0000
               GW ET =   152835040.0000                 GW ET =           3.5912
     SURFACE LEAKAGE =           0.0000       SURFACE LEAKAGE =           0.0000

           TOTAL OUT =  1979803008.0000             TOTAL OUT =          29.5006

            IN - OUT =      132352.0000              IN - OUT =       2.5520E-03

 PERCENT DISCREPANCY =           0.01     PERCENT DISCREPANCY =           0.01






         TIME SUMMARY AT END OF TIME STEP   30 IN STRESS PERIOD   22
                    SECONDS     MINUTES      HOURS       DAYS        YEARS
                    -----------------------------------------------------------
   TIME STEP LENGTH  87600.      1460.0      24.333      1.0139     2.77588E-03
 STRESS PERIOD TIME 2.62800E+06  43800.      730.00      30.417     8.32763E-02
         TOTAL TIME 5.78160E+07 9.63600E+05  16060.      669.17      1.8321    
1
1
                            STRESS PERIOD NO.   23, LENGTH =   2628000.    
                            -----------------------------------------------

                              NUMBER OF TIME STEPS =    30

                               MULTIPLIER FOR DELT =     1.000

                            INITIAL TIME STEP SIZE =   87600.00    

 WELL NO.  LAYER   ROW   COL   STRESS RATE         
 --------------------------------------------------
      1      1      6      4       0.000    
      2      1      6      7       0.000    
      3      1      7      4       0.000    
      4      1      7      5       0.000    
      5      1      8      4       0.000    
      6      1      8      5       0.000    
      7      1      9      4       0.000    
      8      1      9      5       0.000    
      9      1     10      4       0.000    
     10      1     10      5       0.000    

     10 WELLS

 REUSING NON-PARAMETER GHB CELLS FROM LAST STRESS PERIOD

      2 GHB CELLS

 REUSING STREAM SEGMENT DATA FROM LAST STRESS PERIOD



            AREAL INFILTRATION RATE
 READING ON UNIT   19 WITH FORMAT: (10F4.0)            

            1           2           3           4           5           6           7           8           9          10
 ........................................................................................................................
   1   1.0000E-10  2.0000E-10   0.000       0.000       0.000       0.000       0.000       0.000       0.000       0.000    
   2   2.0000E-10  1.0000E-10  2.0000E-10   0.000       0.000      8.0000E-10  8.0000E-10  5.0000E-10   0.000       0.000    
   3    0.000      5.0000E-10  1.0000E-10  1.0000E-10  8.0000E-10  8.0000E-10  5.0000E-10  5.0000E-10   0.000       0.000    
   4   8.0000E-10  5.0000E-10  1.0000E-10  1.0000E-10  1.0000E-10  1.0000E-10  1.0000E-10  1.0000E-10  2.0000E-10   0.000    
   5   8.0000E-10  5.0000E-10  1.0000E-10  1.0000E-10  1.0000E-10  1.0000E-10  1.0000E-10  1.0000E-10  1.0000E-10  1.0000E-10
   6   8.0000E-10  5.0000E-10  5.0000E-10  2.0000E-10  2.0000E-10  1.0000E-10  1.0000E-10  1.0000E-10  1.0000E-10  5.0000E-10
   7   8.0000E-10  5.0000E-10  5.0000E-10  2.0000E-10  2.0000E-10  1.0000E-10  1.0000E-10  2.0000E-10  2.0000E-10   0.000    
   8    0.000      5.0000E-10  5.0000E-10  2.0000E-10  2.0000E-10  1.0000E-10  1.0000E-10  2.0000E-10  5.0000E-10   0.000    
   9    0.000      5.0000E-10  5.0000E-10  2.0000E-10  2.0000E-10  1.0000E-10  1.0000E-10  2.0000E-10  5.0000E-10   0.000    
  10    0.000      5.0000E-10  5.0000E-10  2.0000E-10  2.0000E-10  1.0000E-10  1.0000E-10  2.0000E-10  5.0000E-10  8.0000E-10
  11    0.000      1.0000E-10  1.0000E-10  1.0000E-10  1.0000E-10  1.0000E-10  1.0000E-10  2.0000E-10  5.0000E-10   0.000    
  12   1.0000E-10  1.0000E-10  1.0000E-10  1.0000E-10  1.0000E-10  1.0000E-10  1.0000E-10  1.0000E-10  2.0000E-10   0.000    
  13   1.0000E-10  1.0000E-10  2.0000E-10  2.0000E-10  2.0000E-10  2.0000E-10  2.0000E-10  1.0000E-10  1.0000E-10   0.000    
  14    0.000      2.0000E-10  5.0000E-10  5.0000E-10  5.0000E-10  5.0000E-10  5.0000E-10  2.0000E-10  1.0000E-10   0.000    
  15    0.000       0.000      8.0000E-10  8.0000E-10  8.0000E-10  8.0000E-10   0.000       0.000       0.000       0.000    

                  ET RATE =  1.000000E-10

 USING ET EXTINCTION DEPTH FROM PREVIOUS STRESS PERIOD. CURRENT PERIOD IS:      23

 USING EXTINCTION WATER CONTENT FROM PREVIOUS STRESS PERIOD. CURRENT PERIOD IS:      23
 
 SOLVING FOR HEAD 
                                                   Max.-Head-Change                         Max.-Flux-Residual
  Residual-Control   Outer-Iter.   Inner-Iter.     Column Row Layer    Maximum-Head-Change  Column Row Layer    Maximum-Flux-Residual          L2-NORM 
          0                 1           2             5   13     1       0.1856974053E-01       5   13    1         0.9949700260E+00      0.2400198202E+01
          0                 2           2             8    2     1       0.2237957871E-02       5   13    1        -0.9946061898E-01      0.3816680453E+00
          0                 3           2             8    2     1       0.1005810576E-02       8    2    1         0.2612209137E-01      0.1195224073E+00
          0                 4           2             8    2     1       0.4520434157E-03       8    2    1         0.1174011053E-01      0.5074007225E-01
          0                 5           2             8    2     1       0.2031625951E-03       8    2    1         0.5276380160E-02      0.2254046037E-01
          0                 6           1             8    2     1       0.9130761540E-04       8    2    1         0.2371371632E-02      0.1007554286E-01
          0                 7           1             8    2     1       0.4103646046E-04       8    2    1         0.1065768324E-02      0.4508563425E-02
          0                 8           1             8    2     1       0.1844303627E-04       8    2    1         0.4789891044E-03      0.2018078762E-02
          0                 9           1             8    2     1       0.8288855554E-05       8    2    1         0.2152722740E-03      0.9034597171E-03

    ------------------------------------------------
       NWT REQUIRED            9 OUTER ITERATIONS 
       AND A TOTAL OF         14 INNER ITERATIONS.
    ------------------------------------------------

 NO OUTPUT CONTROL FOR STRESS PERIOD   23   TIME STEP    1
 
 SOLVING FOR HEAD 
                                                   Max.-Head-Change                         Max.-Flux-Residual
  Residual-Control   Outer-Iter.   Inner-Iter.     Column Row Layer    Maximum-Head-Change  Column Row Layer    Maximum-Flux-Residual          L2-NORM 
          0                 1           2             5   13     1       0.1801855336E-01       5   13    1         0.9656127524E+00      0.2317474521E+01
          0                 2           2             8    2     1       0.2236857223E-02       5   13    1        -0.9652605123E-01      0.3764664681E+00
          0                 3           2             8    2     1       0.1005315805E-02       8    2    1         0.2610924380E-01      0.1192088058E+00
          0                 4           2             8    2     1       0.4518210020E-03       8    2    1         0.1173433518E-01      0.5065227705E-01
          0                 5           2             8    2     1       0.2030626137E-03       8    2    1         0.5273783981E-02      0.2250344813E-01
          0                 6           1             8    2     1       0.9126267120E-04       8    2    1         0.2370204581E-02      0.1005963917E-01
          0                 7           1             8    2     1       0.4101625674E-04       8    2    1         0.1065243700E-02      0.4501700948E-02
          0                 8           1             8    2     1       0.1843395399E-04       8    2    1         0.4787532711E-03      0.2015106366E-02
          0                 9           1             8    2     1       0.8284773241E-05       8    2    1         0.2151662615E-03      0.9021678836E-03

    ------------------------------------------------
       NWT REQUIRED            9 OUTER ITERATIONS 
       AND A TOTAL OF         14 INNER ITERATIONS.
    ------------------------------------------------

 NO OUTPUT CONTROL FOR STRESS PERIOD   23   TIME STEP    2
 
 SOLVING FOR HEAD 
                                                   Max.-Head-Change                         Max.-Flux-Residual
  Residual-Control   Outer-Iter.   Inner-Iter.     Column Row Layer    Maximum-Head-Change  Column Row Layer    Maximum-Flux-Residual          L2-NORM 
          0                 1           2             5   13     1       0.1748173741E-01       5   13    1         0.9369876145E+00      0.2241913070E+01
          0                 2           2             8    2     1       0.2235758729E-02       5   13    1        -0.9366436673E-01      0.3718569526E+00
          0                 3           2             8    2     1       0.1004821972E-02       8    2    1         0.2609642123E-01      0.1189689103E+00
          0                 4           2             8    2     1       0.4515989979E-03       8    2    1         0.1172857075E-01      0.5059314935E-01
          0                 5           2             8    2     1       0.2029628114E-03       8    2    1         0.5271192560E-02      0.2247902655E-01
          0                 6           1             8    2     1       0.9121780428E-04       8    2    1         0.2369039592E-02      0.1004922727E-01
          0                 7           1             8    2     1       0.4099608678E-04       8    2    1         0.1064719977E-02      0.4497225568E-02
          0                 8           1             8    2     1       0.1842488671E-04       8    2    1         0.4785178314E-03      0.2013170531E-02
          0                 9           1             8    2     1       0.8280696681E-05       8    2    1         0.2150604157E-03      0.9013259828E-03

    ------------------------------------------------
       NWT REQUIRED            9 OUTER ITERATIONS 
       AND A TOTAL OF         14 INNER ITERATIONS.
    ------------------------------------------------

 NO OUTPUT CONTROL FOR STRESS PERIOD   23   TIME STEP    3
 
 SOLVING FOR HEAD 
                                                   Max.-Head-Change                         Max.-Flux-Residual
  Residual-Control   Outer-Iter.   Inner-Iter.     Column Row Layer    Maximum-Head-Change  Column Row Layer    Maximum-Flux-Residual          L2-NORM 
          0                 1           2             5   13     1       0.1695964714E-01       5   13    1         0.9091187294E+00      0.2172763326E+01
          0                 2           2             8    2     1       0.2234662200E-02       5   13    1        -0.9087832711E-01      0.3677106851E+00
          0                 3           2             8    2     1       0.1004328976E-02       8    2    1         0.2608362137E-01      0.1187515674E+00
          0                 4           2             8    2     1       0.4513773495E-03       8    2    1         0.1172281599E-01      0.5053814899E-01
          0                 5           2             8    2     1       0.2028631589E-03       8    2    1         0.5268605240E-02      0.2245596633E-01
          0                 6           1             8    2     1       0.9117300163E-04       8    2    1         0.2367876352E-02      0.1003929274E-01
          0                 7           1             8    2     1       0.4097594359E-04       8    2    1         0.1064196987E-02      0.4492922560E-02
          0                 8           1             8    2     1       0.1841583044E-04       8    2    1         0.4782826957E-03      0.2011298910E-02
          0                 9           1             8    2     1       0.8276625124E-05       8    2    1         0.2149546994E-03      0.9005083085E-03

    ------------------------------------------------
       NWT REQUIRED            9 OUTER ITERATIONS 
       AND A TOTAL OF         14 INNER ITERATIONS.
    ------------------------------------------------

 NO OUTPUT CONTROL FOR STRESS PERIOD   23   TIME STEP    4
 
 SOLVING FOR HEAD 
                                                   Max.-Head-Change                         Max.-Flux-Residual
  Residual-Control   Outer-Iter.   Inner-Iter.     Column Row Layer    Maximum-Head-Change  Column Row Layer    Maximum-Flux-Residual          L2-NORM 
          0                 1           2             5   13     1       0.1645217985E-01       5   13    1         0.8820050501E+00      0.2109602892E+01
          0                 2           2             8    2     1       0.2233567858E-02       5   13    1        -0.8816773424E-01      0.3639906541E+00
          0                 3           2             8    2     1       0.1003837013E-02       8    2    1         0.2607084728E-01      0.1185554153E+00
          0                 4           2             8    2     1       0.4511561866E-03       8    2    1         0.1171707337E-01      0.5048752784E-01
          0                 5           2             8    2     1       0.2027637350E-03       8    2    1         0.5266023645E-02      0.2243456177E-01
          0                 6           1             8    2     1       0.9112830579E-04       8    2    1         0.2366715797E-02      0.1002999446E-01
          0                 7           1             8    2     1       0.4095585042E-04       8    2    1         0.1063675261E-02      0.4488861264E-02
          0                 8           1             8    2     1       0.1840679768E-04       8    2    1         0.4780481571E-03      0.2009517568E-02
          0                 9           1             8    2     1       0.8272564321E-05       8    2    1         0.2148492658E-03      0.8997250491E-03

    ------------------------------------------------
       NWT REQUIRED            9 OUTER ITERATIONS 
       AND A TOTAL OF         14 INNER ITERATIONS.
    ------------------------------------------------

 NO OUTPUT CONTROL FOR STRESS PERIOD   23   TIME STEP    5
 
 SOLVING FOR HEAD 
                                                   Max.-Head-Change                         Max.-Flux-Residual
  Residual-Control   Outer-Iter.   Inner-Iter.     Column Row Layer    Maximum-Head-Change  Column Row Layer    Maximum-Flux-Residual          L2-NORM 
          0                 1           2             5   13     1       0.1595928798E-01       5   13    1         0.8556479866E+00      0.2051754505E+01
          0                 2           2             8    2     1       0.2232475677E-02       5   13    1        -0.8553270310E-01      0.3606554168E+00
          0                 3           2             8    2     1       0.1003346021E-02       8    2    1         0.2605809841E-01      0.1183809733E+00
          0                 4           2             8    2     1       0.4509354601E-03       8    2    1         0.1171134209E-01      0.5043842501E-01
          0                 5           2             8    2     1       0.2026645069E-03       8    2    1         0.5263447137E-02      0.2241366694E-01
          0                 6           1             8    2     1       0.9108369749E-04       8    2    1         0.2365557522E-02      0.1002089937E-01
          0                 7           1             8    2     1       0.4093579677E-04       8    2    1         0.1063154557E-02      0.4484881311E-02
          0                 8           1             8    2     1       0.1839778268E-04       8    2    1         0.4778140742E-03      0.2007768817E-02
          0                 9           1             8    2     1       0.8268511772E-05       8    2    1         0.2147440299E-03      0.8989538896E-03

    ------------------------------------------------
       NWT REQUIRED            9 OUTER ITERATIONS 
       AND A TOTAL OF         14 INNER ITERATIONS.
    ------------------------------------------------

 NO OUTPUT CONTROL FOR STRESS PERIOD   23   TIME STEP    6
 
 SOLVING FOR HEAD 
                                                   Max.-Head-Change                         Max.-Flux-Residual
  Residual-Control   Outer-Iter.   Inner-Iter.     Column Row Layer    Maximum-Head-Change  Column Row Layer    Maximum-Flux-Residual          L2-NORM 
          0                 1           2             5   13     1       0.1548098367E-01       5   13    1         0.8300516178E+00      0.1998736347E+01
          0                 2           2             8    2     1       0.2231385457E-02       5   13    1        -0.8297387657E-01      0.3575590426E+00
          0                 3           2             8    2     1       0.1002855864E-02       8    2    1         0.2604537221E-01      0.1181965233E+00
          0                 4           2             8    2     1       0.4507150880E-03       8    2    1         0.1170562045E-01      0.5039089956E-01
          0                 5           2             8    2     1       0.2025654290E-03       8    2    1         0.5260874714E-02      0.2239357999E-01
          0                 6           1             8    2     1       0.9103915246E-04       8    2    1         0.2364400972E-02      0.1001215611E-01
          0                 7           1             8    2     1       0.4091576962E-04       8    2    1         0.1062634578E-02      0.4481051391E-02
          0                 8           1             8    2     1       0.1838877843E-04       8    2    1         0.4775802923E-03      0.2006083830E-02
          0                 9           1             8    2     1       0.8264463474E-05       8    2    1         0.2146389235E-03      0.8982100284E-03

    ------------------------------------------------
       NWT REQUIRED            9 OUTER ITERATIONS 
       AND A TOTAL OF         14 INNER ITERATIONS.
    ------------------------------------------------

 NO OUTPUT CONTROL FOR STRESS PERIOD   23   TIME STEP    7
 
 SOLVING FOR HEAD 
                                                   Max.-Head-Change                         Max.-Flux-Residual
  Residual-Control   Outer-Iter.   Inner-Iter.     Column Row Layer    Maximum-Head-Change  Column Row Layer    Maximum-Flux-Residual          L2-NORM 
          0                 1           2             5   13     1       0.1501698337E-01       5   13    1         0.8052037310E+00      0.1950242837E+01
          0                 2           2             8    2     1       0.2230297419E-02       5   13    1        -0.8048977997E-01      0.3547864677E+00
          0                 3           2             8    2     1       0.1002366736E-02       8    2    1         0.2603267171E-01      0.1180271167E+00
          0                 4           2             8    2     1       0.4504952009E-03       8    2    1         0.1169991094E-01      0.5034218921E-01
          0                 5           2             8    2     1       0.2024665788E-03       8    2    1         0.5258308007E-02      0.2237287606E-01
          0                 6           1             8    2     1       0.9099471448E-04       8    2    1         0.2363247110E-02      0.1000315625E-01
          0                 7           1             8    2     1       0.4089579225E-04       8    2    1         0.1062115860E-02      0.4477115782E-02
          0                 8           1             8    2     1       0.1837979794E-04       8    2    1         0.4773471098E-03      0.2004354969E-02
          0                 9           1             8    2     1       0.8260426182E-05       8    2    1         0.2145340992E-03      0.8974480114E-03

    ------------------------------------------------
       NWT REQUIRED            9 OUTER ITERATIONS 
       AND A TOTAL OF         14 INNER ITERATIONS.
    ------------------------------------------------

 NO OUTPUT CONTROL FOR STRESS PERIOD   23   TIME STEP    8
 
 SOLVING FOR HEAD 
                                                   Max.-Head-Change                         Max.-Flux-Residual
  Residual-Control   Outer-Iter.   Inner-Iter.     Column Row Layer    Maximum-Head-Change  Column Row Layer    Maximum-Flux-Residual          L2-NORM 
          0                 1           2             5   13     1       0.1456732298E-01       5   13    1         0.7811088949E+00      0.1905880096E+01
          0                 2           2             8    2     1       0.2229164692E-02       5   13    1        -0.7808102215E-01      0.3522877126E+00
          0                 3           2             8    2     1       0.1001857524E-02       8    2    1         0.2601944960E-01      0.1178725564E+00
          0                 4           2             8    2     1       0.4502662870E-03       8    2    1         0.1169396700E-01      0.5029644386E-01
          0                 5           2             8    2     1       0.2023636716E-03       8    2    1         0.5255635935E-02      0.2235318017E-01
          0                 6           1             8    2     1       0.9094845294E-04       8    2    1         0.2362045893E-02      0.9994529671E-02
          0                 7           1             8    2     1       0.4087499627E-04       8    2    1         0.1061575862E-02      0.4473325773E-02
          0                 8           1             8    2     1       0.1837044879E-04       8    2    1         0.4771043480E-03      0.2002686074E-02
          0                 9           1             8    2     1       0.8256223316E-05       8    2    1         0.2144249651E-03      0.8967092708E-03

    ------------------------------------------------
       NWT REQUIRED            9 OUTER ITERATIONS 
       AND A TOTAL OF         14 INNER ITERATIONS.
    ------------------------------------------------

 NO OUTPUT CONTROL FOR STRESS PERIOD   23   TIME STEP    9
 
 SOLVING FOR HEAD 
                                                   Max.-Head-Change                         Max.-Flux-Residual
  Residual-Control   Outer-Iter.   Inner-Iter.     Column Row Layer    Maximum-Head-Change  Column Row Layer    Maximum-Flux-Residual          L2-NORM 
          0                 1           2             5   13     1       0.1413134833E-01       5   13    1         0.7577502875E+00      0.1865098180E+01
          0                 2           2             8    2     1       0.2228081061E-02       5   13    1        -0.7574588573E-01      0.3499859699E+00
          0                 3           2             8    2     1       0.1001370378E-02       8    2    1         0.2600680054E-01      0.1177217288E+00
          0                 4           2             8    2     1       0.4500472912E-03       8    2    1         0.1168828063E-01      0.5025100241E-01
          0                 5           2             8    2     1       0.2022652227E-03       8    2    1         0.5253079635E-02      0.2233373591E-01
          0                 6           1             8    2     1       0.9090419529E-04       8    2    1         0.2360896711E-02      0.9986041786E-02
          0                 7           1             8    2     1       0.4085509994E-04       8    2    1         0.1061059248E-02      0.4469599347E-02
          0                 8           1             8    2     1       0.1836150457E-04       8    2    1         0.4768721097E-03      0.2001042535E-02
          0                 9           1             8    2     1       0.8252202781E-05       8    2    1         0.2143205658E-03      0.8959839172E-03

    ------------------------------------------------
       NWT REQUIRED            9 OUTER ITERATIONS 
       AND A TOTAL OF         14 INNER ITERATIONS.
    ------------------------------------------------

 NO OUTPUT CONTROL FOR STRESS PERIOD   23   TIME STEP   10
 
 SOLVING FOR HEAD 
                                                   Max.-Head-Change                         Max.-Flux-Residual
  Residual-Control   Outer-Iter.   Inner-Iter.     Column Row Layer    Maximum-Head-Change  Column Row Layer    Maximum-Flux-Residual          L2-NORM 
          0                 1           2             5   13     1       0.1370903500E-01       5   13    1         0.7350986913E+00      0.1827695824E+01
          0                 2           2             8    2     1       0.2226999384E-02       5   13    1        -0.7348119061E-01      0.3478959853E+00
          0                 3           2             8    2     1       0.1000884062E-02       8    2    1         0.2599417406E-01      0.1175781623E+00
          0                 4           2             8    2     1       0.4498286464E-03       8    2    1         0.1168260383E-01      0.5020658915E-01
          0                 5           2             8    2     1       0.2021669210E-03       8    2    1         0.5250527381E-02      0.2231467645E-01
          0                 6           1             8    2     1       0.9085999967E-04       8    2    1         0.2359749235E-02      0.9977710502E-02
          0                 7           1             8    2     1       0.4083523012E-04       8    2    1         0.1060543349E-02      0.4465938434E-02
          0                 8           1             8    2     1       0.1835257110E-04       8    2    1         0.4766401631E-03      0.1999427534E-02
          0                 9           1             8    2     1       0.8248185997E-05       8    2    1         0.2142162839E-03      0.8952691711E-03

    ------------------------------------------------
       NWT REQUIRED            9 OUTER ITERATIONS 
       AND A TOTAL OF         14 INNER ITERATIONS.
    ------------------------------------------------

 NO OUTPUT CONTROL FOR STRESS PERIOD   23   TIME STEP   11
 
 SOLVING FOR HEAD 
                                                   Max.-Head-Change                         Max.-Flux-Residual
  Residual-Control   Outer-Iter.   Inner-Iter.     Column Row Layer    Maximum-Head-Change  Column Row Layer    Maximum-Flux-Residual          L2-NORM 
          0                 1           2             5   13     1       0.1330016896E-01       5   13    1         0.7131551716E+00      0.1793431734E+01
          0                 2           2             8    2     1       0.2225873215E-02       5   13    1        -0.7128751941E-01      0.3459922696E+00
          0                 3           2             8    2     1       0.1000377848E-02       8    2    1         0.2598102873E-01      0.1174425824E+00
          0                 4           2             8    2     1       0.4496011021E-03       8    2    1         0.1167669498E-01      0.5016366997E-01
          0                 5           2             8    2     1       0.2020646394E-03       8    2    1         0.5247871341E-02      0.2229619316E-01
          0                 6           1             8    2     1       0.9081402401E-04       8    2    1         0.2358555343E-02      0.9969617982E-02
          0                 7           1             8    2     1       0.4081456394E-04       8    2    1         0.1060006694E-02      0.4462380494E-02
          0                 8           1             8    2     1       0.1834328148E-04       8    2    1         0.4763989345E-03      0.1997853535E-02
          0                 9           1             8    2     1       0.8244010394E-05       8    2    1         0.2141078520E-03      0.8945717339E-03

    ------------------------------------------------
       NWT REQUIRED            9 OUTER ITERATIONS 
       AND A TOTAL OF         14 INNER ITERATIONS.
    ------------------------------------------------

 NO OUTPUT CONTROL FOR STRESS PERIOD   23   TIME STEP   12
 
 SOLVING FOR HEAD 
                                                   Max.-Head-Change                         Max.-Flux-Residual
  Residual-Control   Outer-Iter.   Inner-Iter.     Column Row Layer    Maximum-Head-Change  Column Row Layer    Maximum-Flux-Residual          L2-NORM 
          0                 1           2             5   13     1       0.1290455958E-01       5   13    1         0.6919154154E+00      0.1761610654E+01
          0                 2           2             8    2     1       0.2224795818E-02       5   13    1        -0.6916426585E-01      0.3441817180E+00
          0                 3           2             8    2     1       0.9998934298E-03       8    2    1         0.2596845208E-01      0.1173060673E+00
          0                 4           2             8    2     1       0.4493832992E-03       8    2    1         0.1167104030E-01      0.5012093035E-01
          0                 5           2             8    2     1       0.2019667116E-03       8    2    1         0.5245328895E-02      0.2227780562E-01
          0                 6           1             8    2     1       0.9076999421E-04       8    2    1         0.2357412212E-02      0.9961520443E-02
          0                 7           1             8    2     1       0.4079476715E-04       8    2    1         0.1059492720E-02      0.4458798925E-02
          0                 8           1             8    2     1       0.1833438078E-04       8    2    1         0.4761678463E-03      0.1996272427E-02
          0                 9           1             8    2     1       0.8240008867E-05       8    2    1         0.2140039505E-03      0.8938779990E-03

    ------------------------------------------------
       NWT REQUIRED            9 OUTER ITERATIONS 
       AND A TOTAL OF         14 INNER ITERATIONS.
    ------------------------------------------------

 NO OUTPUT CONTROL FOR STRESS PERIOD   23   TIME STEP   13
 
 SOLVING FOR HEAD 
                                                   Max.-Head-Change                         Max.-Flux-Residual
  Residual-Control   Outer-Iter.   Inner-Iter.     Column Row Layer    Maximum-Head-Change  Column Row Layer    Maximum-Flux-Residual          L2-NORM 
          0                 1           2             5   13     1       0.1252174913E-01       5   13    1         0.6713679189E+00      0.1732130971E+01
          0                 2           2             8    2     1       0.2223720602E-02       5   13    1        -0.6711012409E-01      0.3425148920E+00
          0                 3           2             8    2     1       0.9994100692E-03       8    2    1         0.2595590127E-01      0.1171757115E+00
          0                 4           2             8    2     1       0.4491660055E-03       8    2    1         0.1166539811E-01      0.5007901909E-01
          0                 5           2             8    2     1       0.2018690278E-03       8    2    1         0.5242792462E-02      0.2225976422E-01
          0                 6           1             8    2     1       0.9072608046E-04       8    2    1         0.2356271968E-02      0.9953593587E-02
          0                 7           1             8    2     1       0.4077502589E-04       8    2    1         0.1058980128E-02      0.4455296738E-02
          0                 8           1             8    2     1       0.1832550634E-04       8    2    1         0.4759374142E-03      0.1994716931E-02
          0                 9           1             8    2     1       0.8236019096E-05       8    2    1         0.2139003592E-03      0.8931793018E-03

    ------------------------------------------------
       NWT REQUIRED            9 OUTER ITERATIONS 
       AND A TOTAL OF         14 INNER ITERATIONS.
    ------------------------------------------------

 NO OUTPUT CONTROL FOR STRESS PERIOD   23   TIME STEP   14
 
 SOLVING FOR HEAD 
                                                   Max.-Head-Change                         Max.-Flux-Residual
  Residual-Control   Outer-Iter.   Inner-Iter.     Column Row Layer    Maximum-Head-Change  Column Row Layer    Maximum-Flux-Residual          L2-NORM 
          0                 1           2             5   13     1       0.1215092728E-01       5   13    1         0.6514605536E+00      0.1705434514E+01
          0                 2           2             8    2     1       0.2222600654E-02       5   13    1        -0.6511994164E-01      0.3410496636E+00
          0                 3           2             8    2     1       0.9989066047E-03       8    2    1         0.2594282833E-01      0.1170579139E+00
          0                 4           2             8    2     1       0.4489396767E-03       8    2    1         0.1165952126E-01      0.5003896159E-01
          0                 5           2             8    2     1       0.2017672836E-03       8    2    1         0.5240150569E-02      0.2224220304E-01
          0                 6           1             8    2     1       0.9068034190E-04       8    2    1         0.2355084322E-02      0.9945806777E-02
          0                 7           1             8    2     1       0.4075446501E-04       8    2    1         0.1058446235E-02      0.4451836063E-02
          0                 8           1             8    2     1       0.1831626298E-04       8    2    1         0.4756974000E-03      0.1993176603E-02
          0                 9           1             8    2     1       0.8231863751E-05       8    2    1         0.2137924603E-03      0.8924924009E-03

    ------------------------------------------------
       NWT REQUIRED            9 OUTER ITERATIONS 
       AND A TOTAL OF         14 INNER ITERATIONS.
    ------------------------------------------------

 NO OUTPUT CONTROL FOR STRESS PERIOD   23   TIME STEP   15
 
 SOLVING FOR HEAD 
                                                   Max.-Head-Change                         Max.-Flux-Residual
  Residual-Control   Outer-Iter.   Inner-Iter.     Column Row Layer    Maximum-Head-Change  Column Row Layer    Maximum-Flux-Residual          L2-NORM 
          0                 1           2             5   13     1       0.1179237032E-01       5   13    1         0.6321907745E+00      0.1680908303E+01
          0                 2           2             8    2     1       0.2221529821E-02       5   13    1        -0.6319359446E-01      0.3397097894E+00
          0                 3           2             8    2     1       0.9984252147E-03       8    2    1         0.2593032868E-01      0.1169468568E+00
          0                 4           2             8    2     1       0.4487232697E-03       8    2    1         0.1165390208E-01      0.5000072135E-01
          0                 5           2             8    2     1       0.2016699979E-03       8    2    1         0.5237624480E-02      0.2222539895E-01
          0                 6           1             8    2     1       0.9063660799E-04       8    2    1         0.2353948729E-02      0.9938337450E-02
          0                 7           1             8    2     1       0.4073480403E-04       8    2    1         0.1057935725E-02      0.4448508514E-02
          0                 8           1             8    2     1       0.1830742456E-04       8    2    1         0.4754679036E-03      0.1991691885E-02
          0                 9           1             8    2     1       0.8227890737E-05       8    2    1         0.2136892915E-03      0.8918292174E-03

    ------------------------------------------------
       NWT REQUIRED            9 OUTER ITERATIONS 
       AND A TOTAL OF         14 INNER ITERATIONS.
    ------------------------------------------------

 NO OUTPUT CONTROL FOR STRESS PERIOD   23   TIME STEP   16
 
 SOLVING FOR HEAD 
                                                   Max.-Head-Change                         Max.-Flux-Residual
  Residual-Control   Outer-Iter.   Inner-Iter.     Column Row Layer    Maximum-Head-Change  Column Row Layer    Maximum-Flux-Residual          L2-NORM 
          0                 1           2             5   13     1       0.1144560920E-01       5   13    1         0.6135501946E+00      0.1658199187E+01
          0                 2           2             8    2     1       0.2220414126E-02       5   13    1        -0.6132997794E-01      0.3384094829E+00
          0                 3           2             8    2     1       0.9979236352E-03       8    2    1         0.2591730527E-01      0.1168147206E+00
          0                 4           2             8    2     1       0.4484977755E-03       8    2    1         0.1164804718E-01      0.4995297855E-01
          0                 5           2             8    2     1       0.2015686239E-03       8    2    1         0.5234992318E-02      0.2220438879E-01
          0                 6           1             8    2     1       0.9059103325E-04       8    2    1         0.2352765397E-02      0.9928969398E-02
          0                 7           1             8    2     1       0.4071431543E-04       8    2    1         0.1057403745E-02      0.4444318296E-02
          0                 8           1             8    2     1       0.1829821372E-04       8    2    1         0.4752287465E-03      0.1989814545E-02
          0                 9           1             8    2     1       0.8223749648E-05       8    2    1         0.2135817766E-03      0.8909871146E-03

    ------------------------------------------------
       NWT REQUIRED            9 OUTER ITERATIONS 
       AND A TOTAL OF         14 INNER ITERATIONS.
    ------------------------------------------------

 NO OUTPUT CONTROL FOR STRESS PERIOD   23   TIME STEP   17
 
 SOLVING FOR HEAD 
                                                   Max.-Head-Change                         Max.-Flux-Residual
  Residual-Control   Outer-Iter.   Inner-Iter.     Column Row Layer    Maximum-Head-Change  Column Row Layer    Maximum-Flux-Residual          L2-NORM 
          0                 1           2             5   13     1       0.1111064774E-01       5   13    1         0.5955400005E+00      0.1636778268E+01
          0                 2           2             8    2     1       0.2219347367E-02       5   13    1        -0.5952964118E-01      0.3371539311E+00
          0                 3           2             8    2     1       0.9974440293E-03       8    2    1         0.2590485294E-01      0.1166833711E+00
          0                 4           2             8    2     1       0.4482821496E-03       8    2    1         0.1164244872E-01      0.4990627384E-01
          0                 5           2             8    2     1       0.2014716801E-03       8    2    1         0.5232475300E-02      0.2218414151E-01
          0                 6           1             8    2     1       0.9054744865E-04       8    2    1         0.2351633772E-02      0.9920061835E-02
          0                 7           1             8    2     1       0.4069471998E-04       8    2    1         0.1056894975E-02      0.4440383928E-02
          0                 8           1             8    2     1       0.1828940406E-04       8    2    1         0.4750000112E-03      0.1988072437E-02
          0                 9           1             8    2     1       0.8219788640E-05       8    2    1         0.2134789372E-03      0.8902143697E-03

    ------------------------------------------------
       NWT REQUIRED            9 OUTER ITERATIONS 
       AND A TOTAL OF         14 INNER ITERATIONS.
    ------------------------------------------------

 NO OUTPUT CONTROL FOR STRESS PERIOD   23   TIME STEP   18
 
 SOLVING FOR HEAD 
                                                   Max.-Head-Change                         Max.-Flux-Residual
  Residual-Control   Outer-Iter.   Inner-Iter.     Column Row Layer    Maximum-Head-Change  Column Row Layer    Maximum-Flux-Residual          L2-NORM 
          0                 1           2             5   13     1       0.1078700132E-01       5   13    1         0.5781346216E+00      0.1617526096E+01
          0                 2           2             8    2     1       0.2218235869E-02       5   13    1        -0.5778958732E-01      0.3360896791E+00
          0                 3           2             8    2     1       0.9969443655E-03       8    2    1         0.2589187864E-01      0.1165780820E+00
          0                 4           2             8    2     1       0.4480575303E-03       8    2    1         0.1163661625E-01      0.4986767427E-01
          0                 5           2             8    2     1       0.2013707045E-03       8    2    1         0.5229853363E-02      0.2216709639E-01
          0                 6           1             8    2     1       0.9050205625E-04       8    2    1         0.2350455108E-02      0.9912472815E-02
          0                 7           1             8    2     1       0.4067431417E-04       8    2    1         0.1056365117E-02      0.4436999509E-02
          0                 8           1             8    2     1       0.1828023099E-04       8    2    1         0.4747618173E-03      0.1986561396E-02
          0                 9           1             8    2     1       0.8215664809E-05       8    2    1         0.2133718578E-03      0.8895392083E-03

    ------------------------------------------------
       NWT REQUIRED            9 OUTER ITERATIONS 
       AND A TOTAL OF         14 INNER ITERATIONS.
    ------------------------------------------------

 NO OUTPUT CONTROL FOR STRESS PERIOD   23   TIME STEP   19
 
 SOLVING FOR HEAD 
                                                   Max.-Head-Change                         Max.-Flux-Residual
  Residual-Control   Outer-Iter.   Inner-Iter.     Column Row Layer    Maximum-Head-Change  Column Row Layer    Maximum-Flux-Residual          L2-NORM 
          0                 1           2             5   13     1       0.1047418522E-01       5   13    1         0.5613090886E+00      0.1599737049E+01
          0                 2           2             8    2     1       0.2217173388E-02       8    2    1         0.5758270310E-01      0.3351123124E+00
          0                 3           2             8    2     1       0.9964667047E-03       8    2    1         0.2587947635E-01      0.1164813287E+00
          0                 4           2             8    2     1       0.4478427872E-03       8    2    1         0.1163104052E-01      0.4983193454E-01
          0                 5           2             8    2     1       0.2012741627E-03       8    2    1         0.5227346681E-02      0.2215118372E-01
          0                 6           1             8    2     1       0.9045865323E-04       8    2    1         0.2349328171E-02      0.9905342640E-02
          0                 7           1             8    2     1       0.4065480201E-04       8    2    1         0.1055858485E-02      0.4433804039E-02
          0                 8           1             8    2     1       0.1827145834E-04       8    2    1         0.4745340483E-03      0.1985129317E-02
          0                 9           1             8    2     1       0.8211721558E-05       8    2    1         0.2132694633E-03      0.8888970011E-03

    ------------------------------------------------
       NWT REQUIRED            9 OUTER ITERATIONS 
       AND A TOTAL OF         14 INNER ITERATIONS.
    ------------------------------------------------

 NO OUTPUT CONTROL FOR STRESS PERIOD   23   TIME STEP   20
 
 SOLVING FOR HEAD 
                                                   Max.-Head-Change                         Max.-Flux-Residual
  Residual-Control   Outer-Iter.   Inner-Iter.     Column Row Layer    Maximum-Head-Change  Column Row Layer    Maximum-Flux-Residual          L2-NORM 
          0                 1           2             5   13     1       0.1017219372E-01       5   13    1         0.5450641060E+00      0.1583059155E+01
          0                 2           2             8    2     1       0.2216066141E-02       8    2    1         0.5755395228E-01      0.3341598897E+00
          0                 3           2             8    2     1       0.9959689519E-03       8    2    1         0.2586655168E-01      0.1163784097E+00
          0                 4           2             8    2     1       0.4476190274E-03       8    2    1         0.1162523036E-01      0.4979415356E-01
          0                 5           2             8    2     1       0.2011735733E-03       8    2    1         0.5224734776E-02      0.2213461009E-01
          0                 6           1             8    2     1       0.9041343440E-04       8    2    1         0.2348154016E-02      0.9897989494E-02
          0                 7           1             8    2     1       0.4063447424E-04       8    2    1         0.1055330653E-02      0.4430531095E-02
          0                 8           1             8    2     1       0.1826232003E-04       8    2    1         0.4742967650E-03      0.1983669275E-02
          0                 9           1             8    2     1       0.8207613734E-05       8    2    1         0.2131627973E-03      0.8882449249E-03

    ------------------------------------------------
       NWT REQUIRED            9 OUTER ITERATIONS 
       AND A TOTAL OF         14 INNER ITERATIONS.
    ------------------------------------------------

 NO OUTPUT CONTROL FOR STRESS PERIOD   23   TIME STEP   21
 
 SOLVING FOR HEAD 
                                                   Max.-Head-Change                         Max.-Flux-Residual
  Residual-Control   Outer-Iter.   Inner-Iter.     Column Row Layer    Maximum-Head-Change  Column Row Layer    Maximum-Flux-Residual          L2-NORM 
          0                 1           2             5   13     1       0.9880289416E-02       5   13    1         0.5293601277E+00      0.1567755190E+01
          0                 2           2             8    2     1       0.2214961000E-02       8    2    1         0.5752525744E-01      0.3333004930E+00
          0                 3           2             8    2     1       0.9954721191E-03       8    2    1         0.2585365147E-01      0.1162822280E+00
          0                 4           2             8    2     1       0.4473956692E-03       8    2    1         0.1161943088E-01      0.4975758650E-01
          0                 5           2             8    2     1       0.2010731592E-03       8    2    1         0.5222127530E-02      0.2211838861E-01
          0                 6           1             8    2     1       0.9036829186E-04       8    2    1         0.2346981892E-02      0.9890753680E-02
          0                 7           1             8    2     1       0.4061417998E-04       8    2    1         0.1054803708E-02      0.4427300254E-02
          0                 8           1             8    2     1       0.1825319648E-04       8    2    1         0.4740598670E-03      0.1982225064E-02
          0                 9           1             8    2     1       0.8203511913E-05       8    2    1         0.2130562943E-03      0.8875985592E-03

    ------------------------------------------------
       NWT REQUIRED            9 OUTER ITERATIONS 
       AND A TOTAL OF         14 INNER ITERATIONS.
    ------------------------------------------------

 NO OUTPUT CONTROL FOR STRESS PERIOD   23   TIME STEP   22
 
 SOLVING FOR HEAD 
                                                   Max.-Head-Change                         Max.-Flux-Residual
  Residual-Control   Outer-Iter.   Inner-Iter.     Column Row Layer    Maximum-Head-Change  Column Row Layer    Maximum-Flux-Residual          L2-NORM 
          0                 1           2             5   13     1       0.9598490237E-02       5   13    1         0.5141983094E+00      0.1553619084E+01
          0                 2           2             8    2     1       0.2213858088E-02       8    2    1         0.5749661914E-01      0.3324905332E+00
          0                 3           2             8    2     1       0.9949763165E-03       8    2    1         0.2584077741E-01      0.1161858141E+00
          0                 4           2             8    2     1       0.4471727858E-03       8    2    1         0.1161364347E-01      0.4972096514E-01
          0                 5           2             8    2     1       0.2009729647E-03       8    2    1         0.5219525866E-02      0.2210222807E-01
          0                 6           1             8    2     1       0.9032325061E-04       8    2    1         0.2345812338E-02      0.9883557979E-02
          0                 7           1             8    2     1       0.4059393174E-04       8    2    1         0.1054277944E-02      0.4424088646E-02
          0                 8           1             8    2     1       0.1824409419E-04       8    2    1         0.4738235181E-03      0.1980789472E-02
          0                 9           1             8    2     1       0.8199419846E-05       8    2    1         0.2129500466E-03      0.8869562515E-03

    ------------------------------------------------
       NWT REQUIRED            9 OUTER ITERATIONS 
       AND A TOTAL OF         14 INNER ITERATIONS.
    ------------------------------------------------

 NO OUTPUT CONTROL FOR STRESS PERIOD   23   TIME STEP   23
 
 SOLVING FOR HEAD 
                                                   Max.-Head-Change                         Max.-Flux-Residual
  Residual-Control   Outer-Iter.   Inner-Iter.     Column Row Layer    Maximum-Head-Change  Column Row Layer    Maximum-Flux-Residual          L2-NORM 
          0                 1           2             5   13     1       0.9326215133E-02       5   13    1         0.4995473730E+00      0.1540347403E+01
          0                 2           2             8    2     1       0.2212804006E-02       8    2    1         0.5746925255E-01      0.3317249653E+00
          0                 3           2             8    2     1       0.9945023835E-03       8    2    1         0.2582847293E-01      0.1160927561E+00
          0                 4           2             8    2     1       0.4469596984E-03       8    2    1         0.1160811118E-01      0.4968508166E-01
          0                 5           2             8    2     1       0.2008771569E-03       8    2    1         0.5217038459E-02      0.2208625995E-01
          0                 6           1             8    2     1       0.9028017424E-04       8    2    1         0.2344693967E-02      0.9876414071E-02
          0                 7           1             8    2     1       0.4057456414E-04       8    2    1         0.1053775110E-02      0.4420891339E-02
          0                 8           1             8    2     1       0.1823538608E-04       8    2    1         0.4735974379E-03      0.1979358301E-02
          0                 9           1             8    2     1       0.8195504858E-05       8    2    1         0.2128484017E-03      0.8863153666E-03

    ------------------------------------------------
       NWT REQUIRED            9 OUTER ITERATIONS 
       AND A TOTAL OF         14 INNER ITERATIONS.
    ------------------------------------------------

 NO OUTPUT CONTROL FOR STRESS PERIOD   23   TIME STEP   24
 
 SOLVING FOR HEAD 
                                                   Max.-Head-Change                         Max.-Flux-Residual
  Residual-Control   Outer-Iter.   Inner-Iter.     Column Row Layer    Maximum-Head-Change  Column Row Layer    Maximum-Flux-Residual          L2-NORM 
          0                 1           2             5   13     1       0.9063254546E-02       5   13    1         0.4853966330E+00      0.1528094834E+01
          0                 2           2             8    2     1       0.2211705038E-02       8    2    1         0.5744071791E-01      0.3310091043E+00
          0                 3           2             8    2     1       0.9940083274E-03       8    2    1         0.2581564478E-01      0.1159993036E+00
          0                 4           2             8    2     1       0.4467375881E-03       8    2    1         0.1160234410E-01      0.4964896621E-01
          0                 5           2             8    2     1       0.2007773048E-03       8    2    1         0.5214445790E-02      0.2207032655E-01
          0                 6           1             8    2     1       0.9023528381E-04       8    2    1         0.2343528390E-02      0.9869322794E-02
          0                 7           1             8    2     1       0.4055438293E-04       8    2    1         0.1053251111E-02      0.4417726549E-02
          0                 8           1             8    2     1       0.1822631405E-04       8    2    1         0.4733618709E-03      0.1977943146E-02
          0                 9           1             8    2     1       0.8191425797E-05       8    2    1         0.2127424927E-03      0.8856818824E-03

    ------------------------------------------------
       NWT REQUIRED            9 OUTER ITERATIONS 
       AND A TOTAL OF         14 INNER ITERATIONS.
    ------------------------------------------------

 NO OUTPUT CONTROL FOR STRESS PERIOD   23   TIME STEP   25
 
 SOLVING FOR HEAD 
                                                   Max.-Head-Change                         Max.-Flux-Residual
  Residual-Control   Outer-Iter.   Inner-Iter.     Column Row Layer    Maximum-Head-Change  Column Row Layer    Maximum-Flux-Residual          L2-NORM 
          0                 1           2             5   13     1       0.8808928900E-02       5   13    1         0.4717277846E+00      0.1516631665E+01
          0                 2           2             8    2     1       0.2210608295E-02       8    2    1         0.5741223970E-01      0.3303315234E+00
          0                 3           2             8    2     1       0.9935152996E-03       8    2    1         0.2580284273E-01      0.1159116384E+00
          0                 4           2             8    2     1       0.4465159537E-03       8    2    1         0.1159658910E-01      0.4961456223E-01
          0                 5           2             8    2     1       0.2006776716E-03       8    2    1         0.5211858698E-02      0.2205501096E-01
          0                 6           1             8    2     1       0.9019049517E-04       8    2    1         0.2342365399E-02      0.9862465727E-02
          0                 7           1             8    2     1       0.4053424874E-04       8    2    1         0.1052728300E-02      0.4414653365E-02
          0                 8           1             8    2     1       0.1821726278E-04       8    2    1         0.4731268466E-03      0.1976564881E-02
          0                 9           1             8    2     1       0.8187357241E-05       8    2    1         0.2126368426E-03      0.8850633738E-03

    ------------------------------------------------
       NWT REQUIRED            9 OUTER ITERATIONS 
       AND A TOTAL OF         14 INNER ITERATIONS.
    ------------------------------------------------

 NO OUTPUT CONTROL FOR STRESS PERIOD   23   TIME STEP   26
 
 SOLVING FOR HEAD 
                                                   Max.-Head-Change                         Max.-Flux-Residual
  Residual-Control   Outer-Iter.   Inner-Iter.     Column Row Layer    Maximum-Head-Change  Column Row Layer    Maximum-Flux-Residual          L2-NORM 
          0                 1           2             5   13     1       0.8563161406E-02       5   13    1         0.4584993102E+00      0.1506081687E+01
          0                 2           2             8    2     1       0.2209513649E-02       8    2    1         0.5738381724E-01      0.3297102627E+00
          0                 3           2             8    2     1       0.9930231868E-03       8    2    1         0.2579006503E-01      0.1158299969E+00
          0                 4           2             8    2     1       0.4462947177E-03       8    2    1         0.1159084471E-01      0.4958220264E-01
          0                 5           2             8    2     1       0.2005782119E-03       8    2    1         0.5209276235E-02      0.2204037438E-01
          0                 6           1             8    2     1       0.9014578207E-04       8    2    1         0.2341204423E-02      0.9855817514E-02
          0                 7           1             8    2     1       0.4051414756E-04       8    2    1         0.1052206371E-02      0.4411638142E-02
          0                 8           1             8    2     1       0.1820822577E-04       8    2    1         0.4728922061E-03      0.1975199724E-02
          0                 9           1             8    2     1       0.8183294687E-05       8    2    1         0.2125313599E-03      0.8844463897E-03

    ------------------------------------------------
       NWT REQUIRED            9 OUTER ITERATIONS 
       AND A TOTAL OF         14 INNER ITERATIONS.
    ------------------------------------------------

 NO OUTPUT CONTROL FOR STRESS PERIOD   23   TIME STEP   27
 
 SOLVING FOR HEAD 
                                                   Max.-Head-Change                         Max.-Flux-Residual
  Residual-Control   Outer-Iter.   Inner-Iter.     Column Row Layer    Maximum-Head-Change  Column Row Layer    Maximum-Flux-Residual          L2-NORM 
          0                 1           2             5   13     1       0.8325903258E-02       5   13    1         0.4457287822E+00      0.1495773334E+01
          0                 2           2             8    2     1       0.2208421110E-02       8    2    1         0.5735544946E-01      0.3290260966E+00
          0                 3           2             8    2     1       0.9925320220E-03       8    2    1         0.2577731193E-01      0.1157115647E+00
          0                 4           2             8    2     1       0.4460739087E-03       8    2    1         0.1158511139E-01      0.4953396903E-01
          0                 5           2             8    2     1       0.2004789446E-03       8    2    1         0.5206698749E-02      0.2201896287E-01
          0                 6           1             8    2     1       0.9010115526E-04       8    2    1         0.2340045680E-02      0.9846258784E-02
          0                 7           1             8    2     1       0.4049408466E-04       8    2    1         0.1051685440E-02      0.4407364958E-02
          0                 8           1             8    2     1       0.1819920651E-04       8    2    1         0.4726580160E-03      0.1973287823E-02
          0                 9           1             8    2     1       0.8179239887E-05       8    2    1         0.2124260741E-03      0.8835902643E-03

    ------------------------------------------------
       NWT REQUIRED            9 OUTER ITERATIONS 
       AND A TOTAL OF         14 INNER ITERATIONS.
    ------------------------------------------------

 NO OUTPUT CONTROL FOR STRESS PERIOD   23   TIME STEP   28
 
 SOLVING FOR HEAD 
                                                   Max.-Head-Change                         Max.-Flux-Residual
  Residual-Control   Outer-Iter.   Inner-Iter.     Column Row Layer    Maximum-Head-Change  Column Row Layer    Maximum-Flux-Residual          L2-NORM 
          0                 1           2             5   13     1       0.8096729973E-02       5   13    1         0.4333932529E+00      0.1486544847E+01
          0                 2           2             8    2     1       0.2207330789E-02       8    2    1         0.5732713796E-01      0.3284605285E+00
          0                 3           2             8    2     1       0.9920418824E-03       8    2    1         0.2576458485E-01      0.1156248746E+00
          0                 4           2             8    2     1       0.4458535726E-03       8    2    1         0.1157939010E-01      0.4949905522E-01
          0                 5           2             8    2     1       0.2003798954E-03       8    2    1         0.5204126818E-02      0.2200342340E-01
          0                 6           1             8    2     1       0.9005662899E-04       8    2    1         0.2338889503E-02      0.9839304263E-02
          0                 7           1             8    2     1       0.4047406877E-04       8    2    1         0.1051165698E-02      0.4404247670E-02
          0                 8           1             8    2     1       0.1819020852E-04       8    2    1         0.4724243707E-03      0.1971889311E-02
          0                 9           1             8    2     1       0.8175195091E-05       8    2    1         0.2123210424E-03      0.8829625490E-03

    ------------------------------------------------
       NWT REQUIRED            9 OUTER ITERATIONS 
       AND A TOTAL OF         14 INNER ITERATIONS.
    ------------------------------------------------

 NO OUTPUT CONTROL FOR STRESS PERIOD   23   TIME STEP   29
 
 SOLVING FOR HEAD 
                                                   Max.-Head-Change                         Max.-Flux-Residual
  Residual-Control   Outer-Iter.   Inner-Iter.     Column Row Layer    Maximum-Head-Change  Column Row Layer    Maximum-Flux-Residual          L2-NORM 
          0                 1           2             5   13     1       0.7886215422E-02       5   13    1         0.4220222142E+00      0.1480230725E+01
          0                 2           2             8    2     1       0.2206242559E-02       8    2    1         0.5729888203E-01      0.3281149845E+00
          0                 3           2             8    2     1       0.9915526552E-03       8    2    1         0.2575188205E-01      0.1155560302E+00
          0                 4           2             8    2     1       0.4456336349E-03       8    2    1         0.1157367940E-01      0.4946697652E-01
          0                 5           2             8    2     1       0.2002810197E-03       8    2    1         0.5201559503E-02      0.2198875156E-01
          0                 6           1             8    2     1       0.9001217826E-04       8    2    1         0.2337735338E-02      0.9832680808E-02
          0                 7           1             8    2     1       0.4045408565E-04       8    2    1         0.1050646831E-02      0.4401263216E-02
          0                 8           1             8    2     1       0.1818122478E-04       8    2    1         0.4721911075E-03      0.1970544672E-02
          0                 9           1             8    2     1       0.8171156298E-05       8    2    1         0.2122161776E-03      0.8823566451E-03

    ------------------------------------------------
       NWT REQUIRED            9 OUTER ITERATIONS 
       AND A TOTAL OF         14 INNER ITERATIONS.
    ------------------------------------------------

 NO OUTPUT CONTROL FOR STRESS PERIOD   23   TIME STEP   30



 STREAM LISTING     PERIOD     23   STEP       30

 LAYER ROW COL. STREAM  RCH.  FLOW INTO     FLOW TO   FLOW OUT OF   OVRLND.     DIRECT     STREAM       STREAM     STREAM     STREAM   STREAMBED  STREAMBED
                SEG.NO.  NO.  STRM. RCH.    AQUIFER    STRM. RCH.    RUNOFF     PRECIP       ET          HEAD       DEPTH      WIDTH   CONDCTNC.   GRADIENT

   1    1    1     1     1    3.3507E+00  8.1811E-02   3.2689E+00  0.000E+00  0.000E+00  0.000E+00  1.09370E+03  6.554E-01  4.974E+00  2.238E-02  1.218E+00
   1    2    2     1     2    3.2689E+00  1.2566E-01   3.1432E+00  0.000E+00  0.000E+00  0.000E+00  1.08871E+03  6.481E-01  4.921E+00  3.444E-02  1.216E+00
   1    3    3     1     3    3.1432E+00  1.0615E-01   3.0371E+00  0.000E+00  0.000E+00  0.000E+00  1.08306E+03  6.399E-01  4.860E+00  2.916E-02  1.213E+00
   1    3    4     1     4    3.0371E+00  9.6892E-02   2.9402E+00  0.000E+00  0.000E+00  0.000E+00  1.07804E+03  6.325E-01  4.806E+00  2.667E-02  1.211E+00
   1    4    5     2     1    9.4018E-01  0.0000E+00   9.4018E-01  0.000E+00  0.000E+00  0.000E+00  1.07210E+03  1.687E-01  1.200E+01  0.000E+00  1.056E+00
   1    5    6     2     2    9.4018E-01  0.0000E+00   9.4018E-01  0.000E+00  0.000E+00  0.000E+00  1.06668E+03  1.687E-01  1.200E+01  0.000E+00  1.056E+00
   1    6    6     2     3    9.4018E-01  0.0000E+00   9.4018E-01  0.000E+00  0.000E+00  0.000E+00  1.06196E+03  1.687E-01  1.200E+01  0.000E+00  1.056E+00
   1    7    6     2     4    9.4018E-01  0.0000E+00   9.4018E-01  0.000E+00  0.000E+00  0.000E+00  1.05724E+03  1.687E-01  1.200E+01  0.000E+00  1.056E+00
   1    8    6     2     5    9.4018E-01  0.0000E+00   9.4018E-01  0.000E+00  0.000E+00  0.000E+00  1.05253E+03  1.687E-01  1.200E+01  0.000E+00  1.056E+00
   1    3    5     3     1    2.0000E+00  2.8252E-01   1.7175E+00  0.000E+00  0.000E+00  0.000E+00  1.07555E+03  1.909E+00  9.636E+00  7.227E-02  1.955E+00
   1    3    6     3     2    1.7175E+00  2.4905E-01   1.4684E+00  0.000E+00  0.000E+00  0.000E+00  1.07264E+03  1.727E+00  8.909E+00  6.682E-02  1.864E+00
   1    3    7     3     3    1.4684E+00  1.9718E-01   1.2712E+00  0.000E+00  0.000E+00  0.000E+00  1.06987E+03  1.555E+00  8.218E+00  5.547E-02  1.777E+00
   1    4    8     3     4    1.2712E+00  2.2567E-01   1.0456E+00  0.000E+00  0.000E+00  0.000E+00  1.06682E+03  1.364E+00  7.455E+00  6.709E-02  1.682E+00
   1    5    8     3     5    1.0456E+00  1.5790E-01   8.8768E-01  0.000E+00  0.000E+00  0.000E+00  1.06362E+03  1.164E+00  6.655E+00  4.991E-02  1.582E+00
   1    6    8     3     6    8.8768E-01  5.5980E-02   8.3170E-01  0.000E+00  0.000E+00  0.000E+00  1.06158E+03  1.036E+00  6.145E+00  1.844E-02  1.518E+00
   1    5   10     4     1    1.0000E+01  0.0000E+00   1.0000E+01  0.000E+00  0.000E+00  0.000E+00  1.07837E+03  6.385E-01  1.000E+01  0.000E+00  1.213E+00
   1    5    9     4     2    1.0000E+01  0.0000E+00   1.0000E+01  0.000E+00  0.000E+00  0.000E+00  1.07155E+03  6.385E-01  1.000E+01  0.000E+00  1.213E+00
   1    6    8     4     3    1.0000E+01  0.0000E+00   1.0000E+01  0.000E+00  0.000E+00  0.000E+00  1.06382E+03  6.385E-01  1.000E+01  0.000E+00  1.213E+00
   1    6    8     5     1    1.0832E+01  2.3262E-01   1.0599E+01  0.000E+00  0.000E+00  0.000E+00  1.05869E+03  6.881E-01  1.577E+01  6.307E-02  1.229E+00
   1    7    7     5     2    1.0599E+01  2.8607E-01   1.0313E+01  0.000E+00  0.000E+00  0.000E+00  1.05418E+03  6.822E-01  1.554E+01  7.769E-02  1.227E+00
   1    8    7     5     3    1.0313E+01  1.9716E-01   1.0116E+01  0.000E+00  0.000E+00  0.000E+00  1.04993E+03  6.766E-01  1.532E+01  5.363E-02  1.226E+00
   1    8    6     5     4    1.0116E+01  1.3929E-01   9.9766E+00  0.000E+00  0.000E+00  0.000E+00  1.04692E+03  6.727E-01  1.517E+01  3.792E-02  1.224E+00
   1    9    6     6     1    1.0917E+01  0.0000E+00   1.0917E+01  0.000E+00  0.000E+00  0.000E+00  1.04347E+03  7.427E-01  1.200E+01  0.000E+00  1.248E+00
   1   10    7     6     2    1.0917E+01  0.0000E+00   1.0917E+01  0.000E+00  0.000E+00  0.000E+00  1.03892E+03  7.427E-01  1.200E+01  0.000E+00  1.248E+00
   1   11    7     6     3    1.0917E+01  0.0000E+00   1.0917E+01  0.000E+00  0.000E+00  0.000E+00  1.03438E+03  7.427E-01  1.200E+01  0.000E+00  1.248E+00
   1   12    7     6     4    1.0917E+01  0.0000E+00   1.0917E+01  0.000E+00  0.000E+00  0.000E+00  1.02983E+03  7.427E-01  1.200E+01  0.000E+00  1.248E+00
   1   13    7     6     5    1.0917E+01  0.0000E+00   1.0917E+01  0.000E+00  0.000E+00  0.000E+00  1.02665E+03  7.427E-01  1.200E+01  0.000E+00  1.960E-02
   1   14    9     7     1    1.5000E+02  1.2863E+00   1.4871E+02  0.000E+00  0.000E+00  0.000E+00  1.03987E+03  2.288E+00  5.530E+01  5.593E-01  7.666E-01
   1   13    8     7     2    1.4871E+02  1.9160E+00   1.4680E+02  0.000E+00  0.000E+00  0.000E+00  1.03478E+03  2.279E+00  5.526E+01  6.148E-01  1.039E+00
   1   13    7     7     3    1.4680E+02  1.7288E+00   1.4507E+02  0.000E+00  0.000E+00  0.000E+00  1.02969E+03  2.270E+00  5.521E+01  5.584E-01  1.032E+00
   1   13    6     8     1    1.5599E+02  1.1229E+00   1.5486E+02  0.000E+00  0.000E+00  0.000E+00  1.02473E+03  2.855E+00  4.139E+01  4.218E-01  8.874E-01
   1   13    5     8     2    1.5486E+02  3.6449E-01   1.5450E+02  0.000E+00  0.000E+00  0.000E+00  1.01847E+03  2.849E+00  4.132E+01  4.210E-01  2.886E-01
   1   13    4     8     3    1.5450E+02 -2.0182E+00   1.5652E+02  0.000E+00  0.000E+00  0.000E+00  1.01223E+03  2.855E+00  4.140E+01  4.219E+00 -1.595E-01
   1   13    3     8     4    1.5652E+02 -3.5712E+00   1.6009E+02  0.000E+00  0.000E+00  0.000E+00  1.00600E+03  2.874E+00  4.168E+01  4.247E+00 -2.803E-01
   1   13    2     8     5    1.6009E+02 -2.5471E+00   1.6263E+02  0.000E+00  0.000E+00  0.000E+00  9.99770E+02  2.895E+00  4.198E+01  4.278E+00 -1.985E-01
   1   13    1     8     6    1.6263E+02 -1.8213E+00   1.6446E+02  0.000E+00  0.000E+00  0.000E+00  9.94785E+02  2.910E+00  4.219E+01  2.580E+00 -2.354E-01
   1    6    8     9     1    0.0000E+00  0.0000E+00   0.0000E+00  0.000E+00  0.000E+00  0.000E+00  1.07850E+03  0.000E+00  4.000E+00  0.000E+00  1.000E+00





UNSATURATED ZONE PACKAGE VOLUMETRIC BUDGET FOR  TIME STEP    30 STRESS PERIOD   23
  ------------------------------------------------------------------------------



     CUMULATIVE VOLUMES      L**3       RATES FOR THIS TIME STEP      L**3/T
     ------------------                 ------------------------

           IN:                                      IN:
           ---                                      ---
        INFILTRATION =    93232451.6921          INFILTRATION =           0.8475

          OUT:                                     OUT:
          ----                                     ----
              UZF ET =   619936934.2000                UZF ET =           0.2900
        UZF RECHARGE =  1371099272.0623          UZF RECHARGE =          19.6107

            IN - OUT = -1897803754.5701              IN - OUT =         -19.0532

          STORAGE:                                 STORAGE:
          --------                                 --------
      STORAGE CHANGE = -1897794023.8049        STORAGE CHANGE =         -19.0532

 PERCENT DISCREPANCY IS DIFFERENCE BETWEEN IN-OUT MINUS CHANGE IN STORAGE
 DIVIDED BY THE AVERAGE OF IN AND OUT TIMES 100

 PERCENT DISCREPANCY =          -0.00     PERCENT DISCREPANCY =           0.00






1
  VOLUMETRIC BUDGET FOR ENTIRE MODEL AT END OF TIME STEP   30, STRESS PERIOD  23
  ------------------------------------------------------------------------------

     CUMULATIVE VOLUMES      L**3       RATES FOR THIS TIME STEP      L**3/T
     ------------------                 ------------------------

           IN:                                      IN:
           ---                                      ---
             STORAGE =    68039896.0000               STORAGE =           0.1890
       CONSTANT HEAD =           0.0000         CONSTANT HEAD =           0.0000
               WELLS =           0.0000                 WELLS =           0.0000
     HEAD DEP BOUNDS =    17118198.0000       HEAD DEP BOUNDS =           0.2824
      STREAM LEAKAGE =   600314240.0000        STREAM LEAKAGE =           8.8525
        UZF RECHARGE =  1371097856.0000          UZF RECHARGE =          19.6107
               GW ET =           0.0000                 GW ET =           0.0000
     SURFACE LEAKAGE =           0.0000       SURFACE LEAKAGE =           0.0000

            TOTAL IN =  2056570112.0000              TOTAL IN =          28.9347

          OUT:                                     OUT:
          ----                                     ----
             STORAGE =  1384824192.0000               STORAGE =          18.6896
       CONSTANT HEAD =           0.0000         CONSTANT HEAD =           0.0000
               WELLS =     1235968.6250                 WELLS =           0.0000
     HEAD DEP BOUNDS =    17269140.0000       HEAD DEP BOUNDS =           0.2846
      STREAM LEAKAGE =   500267136.0000        STREAM LEAKAGE =           9.9579
        UZF RECHARGE =           0.0000          UZF RECHARGE =           0.0000
               GW ET =   152835040.0000                 GW ET =       1.7825E-10
     SURFACE LEAKAGE =           0.0000       SURFACE LEAKAGE =           0.0000

           TOTAL OUT =  2056431488.0000             TOTAL OUT =          28.9321

            IN - OUT =      138624.0000              IN - OUT =       2.5177E-03

 PERCENT DISCREPANCY =           0.01     PERCENT DISCREPANCY =           0.01






         TIME SUMMARY AT END OF TIME STEP   30 IN STRESS PERIOD   23
                    SECONDS     MINUTES      HOURS       DAYS        YEARS
                    -----------------------------------------------------------
   TIME STEP LENGTH  87600.      1460.0      24.333      1.0139     2.77588E-03
 STRESS PERIOD TIME 2.62800E+06  43800.      730.00      30.417     8.32763E-02
         TOTAL TIME 6.04440E+07 1.00740E+06  16790.      699.58      1.9154    
1
1
                            STRESS PERIOD NO.   24, LENGTH =   2628000.    
                            -----------------------------------------------

                              NUMBER OF TIME STEPS =    30

                               MULTIPLIER FOR DELT =     1.000

                            INITIAL TIME STEP SIZE =   87600.00    

 WELL NO.  LAYER   ROW   COL   STRESS RATE         
 --------------------------------------------------
      1      1      6      4       0.000    
      2      1      6      7       0.000    
      3      1      7      4       0.000    
      4      1      7      5       0.000    
      5      1      8      4       0.000    
      6      1      8      5       0.000    
      7      1      9      4       0.000    
      8      1      9      5       0.000    
      9      1     10      4       0.000    
     10      1     10      5       0.000    

     10 WELLS

 REUSING NON-PARAMETER GHB CELLS FROM LAST STRESS PERIOD

      2 GHB CELLS

 REUSING STREAM SEGMENT DATA FROM LAST STRESS PERIOD



            AREAL INFILTRATION RATE
 READING ON UNIT   19 WITH FORMAT: (10F4.0)            

            1           2           3           4           5           6           7           8           9          10
 ........................................................................................................................
   1   1.0000E-10  2.0000E-10   0.000       0.000       0.000       0.000       0.000       0.000       0.000       0.000    
   2   2.0000E-10  1.0000E-10  2.0000E-10   0.000       0.000      8.0000E-10  8.0000E-10  5.0000E-10   0.000       0.000    
   3    0.000      5.0000E-10  1.0000E-10  1.0000E-10  8.0000E-10  8.0000E-10  5.0000E-10  5.0000E-10   0.000       0.000    
   4   8.0000E-10  5.0000E-10  1.0000E-10  1.0000E-10  1.0000E-10  1.0000E-10  1.0000E-10  1.0000E-10  2.0000E-10   0.000    
   5   8.0000E-10  5.0000E-10  1.0000E-10  1.0000E-10  1.0000E-10  1.0000E-10  1.0000E-10  1.0000E-10  1.0000E-10  1.0000E-10
   6   8.0000E-10  5.0000E-10  5.0000E-10  2.0000E-10  2.0000E-10  1.0000E-10  1.0000E-10  1.0000E-10  1.0000E-10  5.0000E-10
   7   8.0000E-10  5.0000E-10  5.0000E-10  2.0000E-10  2.0000E-10  1.0000E-10  1.0000E-10  2.0000E-10  2.0000E-10   0.000    
   8    0.000      5.0000E-10  5.0000E-10  2.0000E-10  2.0000E-10  1.0000E-10  1.0000E-10  2.0000E-10  5.0000E-10   0.000    
   9    0.000      5.0000E-10  5.0000E-10  2.0000E-10  2.0000E-10  1.0000E-10  1.0000E-10  2.0000E-10  5.0000E-10   0.000    
  10    0.000      5.0000E-10  5.0000E-10  2.0000E-10  2.0000E-10  1.0000E-10  1.0000E-10  2.0000E-10  5.0000E-10  8.0000E-10
  11    0.000      1.0000E-10  1.0000E-10  1.0000E-10  1.0000E-10  1.0000E-10  1.0000E-10  2.0000E-10  5.0000E-10   0.000    
  12   1.0000E-10  1.0000E-10  1.0000E-10  1.0000E-10  1.0000E-10  1.0000E-10  1.0000E-10  1.0000E-10  2.0000E-10   0.000    
  13   1.0000E-10  1.0000E-10  2.0000E-10  2.0000E-10  2.0000E-10  2.0000E-10  2.0000E-10  1.0000E-10  1.0000E-10   0.000    
  14    0.000      2.0000E-10  5.0000E-10  5.0000E-10  5.0000E-10  5.0000E-10  5.0000E-10  2.0000E-10  1.0000E-10   0.000    
  15    0.000       0.000      8.0000E-10  8.0000E-10  8.0000E-10  8.0000E-10   0.000       0.000       0.000       0.000    

                  ET RATE =  1.000000E-10

 USING ET EXTINCTION DEPTH FROM PREVIOUS STRESS PERIOD. CURRENT PERIOD IS:      24

 USING EXTINCTION WATER CONTENT FROM PREVIOUS STRESS PERIOD. CURRENT PERIOD IS:      24
 
 SOLVING FOR HEAD 
                                                   Max.-Head-Change                         Max.-Flux-Residual
  Residual-Control   Outer-Iter.   Inner-Iter.     Column Row Layer    Maximum-Head-Change  Column Row Layer    Maximum-Flux-Residual          L2-NORM 
          0                 1           2             5   13     1       0.7683465454E-02       5   13    1         0.4110743591E+00      0.1474168033E+01
          0                 2           2             8    2     1       0.2205156430E-02       8    2    1         0.5727068063E-01      0.3277834464E+00
          0                 3           2             8    2     1       0.9910643726E-03       8    2    1         0.2573920377E-01      0.1154864496E+00
          0                 4           2             8    2     1       0.4454141222E-03       8    2    1         0.1156797973E-01      0.4943472568E-01
          0                 5           2             8    2     1       0.2001823354E-03       8    2    1         0.5198997150E-02      0.2197410118E-01
          0                 6           1             8    2     1       0.8996781331E-04       8    2    1         0.2336583398E-02      0.9826101640E-02
          0                 7           1             8    2     1       0.4043414079E-04       8    2    1         0.1050128966E-02      0.4398310744E-02
          0                 8           1             8    2     1       0.1817225855E-04       8    2    1         0.4719582972E-03      0.1969218732E-02
          0                 9           1             8    2     1       0.8167125258E-05       8    2    1         0.2121115147E-03      0.8817613202E-03

    ------------------------------------------------
       NWT REQUIRED            9 OUTER ITERATIONS 
       AND A TOTAL OF         14 INNER ITERATIONS.
    ------------------------------------------------

 NO OUTPUT CONTROL FOR STRESS PERIOD   24   TIME STEP    1
 
 SOLVING FOR HEAD 
                                                   Max.-Head-Change                         Max.-Flux-Residual
  Residual-Control   Outer-Iter.   Inner-Iter.     Column Row Layer    Maximum-Head-Change  Column Row Layer    Maximum-Flux-Residual          L2-NORM 
          0                 1           2             5   13     1       0.7477446774E-02       5   13    1         0.3999941176E+00      0.1466474275E+01
          0                 2           2             8    2     1       0.2204072399E-02       8    2    1         0.5724253370E-01      0.3272964555E+00
          0                 3           2             8    2     1       0.9905770348E-03       8    2    1         0.2572654999E-01      0.1154049220E+00
          0                 4           2             8    2     1       0.4451950335E-03       8    2    1         0.1156229108E-01      0.4940128910E-01
          0                 5           2             8    2     1       0.2000838417E-03       8    2    1         0.5196439755E-02      0.2195917271E-01
          0                 6           1             8    2     1       0.8992353465E-04       8    2    1         0.2335433698E-02      0.9819406193E-02
          0                 7           1             8    2     1       0.4041423495E-04       8    2    1         0.1049612106E-02      0.4395304220E-02
          0                 8           1             8    2     1       0.1816330958E-04       8    2    1         0.4717259372E-03      0.1967867786E-02
          0                 9           1             8    2     1       0.8163102222E-05       8    2    1         0.2120070560E-03      0.8811538459E-03

    ------------------------------------------------
       NWT REQUIRED            9 OUTER ITERATIONS 
       AND A TOTAL OF         14 INNER ITERATIONS.
    ------------------------------------------------

 NO OUTPUT CONTROL FOR STRESS PERIOD   24   TIME STEP    2
 
 SOLVING FOR HEAD 
                                                   Max.-Head-Change                         Max.-Flux-Residual
  Residual-Control   Outer-Iter.   Inner-Iter.     Column Row Layer    Maximum-Head-Change  Column Row Layer    Maximum-Flux-Residual          L2-NORM 
          0                 1           2             5   13     1       0.7278276544E-02       5   13    1         0.3892907054E+00      0.1459099407E+01
          0                 2           2             8    2     1       0.2202990466E-02       8    2    1         0.5721444121E-01      0.3267909875E+00
          0                 3           2             8    2     1       0.9900906396E-03       8    2    1         0.2571392069E-01      0.1153142830E+00
          0                 4           2             8    2     1       0.4449763696E-03       8    2    1         0.1155661344E-01      0.4936506796E-01
          0                 5           2             8    2     1       0.1999855391E-03       8    2    1         0.5193887311E-02      0.2194328792E-01
          0                 6           1             8    2     1       0.8987934178E-04       8    2    1         0.2334286219E-02      0.9812364877E-02
          0                 7           1             8    2     1       0.4039436738E-04       8    2    1         0.1049096240E-02      0.4392171335E-02
          0                 8           1             8    2     1       0.1815437761E-04       8    2    1         0.4714940226E-03      0.1966470812E-02
          0                 9           1             8    2     1       0.8159087190E-05       8    2    1         0.2119027988E-03      0.8805298793E-03

    ------------------------------------------------
       NWT REQUIRED            9 OUTER ITERATIONS 
       AND A TOTAL OF         14 INNER ITERATIONS.
    ------------------------------------------------

 NO OUTPUT CONTROL FOR STRESS PERIOD   24   TIME STEP    3
 
 SOLVING FOR HEAD 
                                                   Max.-Head-Change                         Max.-Flux-Residual
  Residual-Control   Outer-Iter.   Inner-Iter.     Column Row Layer    Maximum-Head-Change  Column Row Layer    Maximum-Flux-Residual          L2-NORM 
          0                 1           2             5   13     1       0.7085503165E-02       5   13    1         0.3789218988E+00      0.1451934946E+01
          0                 2           2             8    2     1       0.2201910739E-02       8    2    1         0.5718640470E-01      0.3262924415E+00
          0                 3           2             8    2     1       0.9896052643E-03       8    2    1         0.2570131729E-01      0.1152290693E+00
          0                 4           2             8    2     1       0.4447581760E-03       8    2    1         0.1155094776E-01      0.4933135165E-01
          0                 5           2             8    2     1       0.1998874535E-03       8    2    1         0.5191340387E-02      0.2192836864E-01
          0                 6           1             8    2     1       0.8983524845E-04       8    2    1         0.2333141283E-02      0.9805692990E-02
          0                 7           1             8    2     1       0.4037454583E-04       8    2    1         0.1048581554E-02      0.4389181724E-02
          0                 8           1             8    2     1       0.1814546765E-04       8    2    1         0.4712626581E-03      0.1965130012E-02
          0                 9           1             8    2     1       0.8155081161E-05       8    2    1         0.2117987872E-03      0.8799278127E-03

    ------------------------------------------------
       NWT REQUIRED            9 OUTER ITERATIONS 
       AND A TOTAL OF         14 INNER ITERATIONS.
    ------------------------------------------------

 NO OUTPUT CONTROL FOR STRESS PERIOD   24   TIME STEP    4
 
 SOLVING FOR HEAD 
                                                   Max.-Head-Change                         Max.-Flux-Residual
  Residual-Control   Outer-Iter.   Inner-Iter.     Column Row Layer    Maximum-Head-Change  Column Row Layer    Maximum-Flux-Residual          L2-NORM 
          0                 1           2             5   13     1       0.6899279406E-02       5   13    1         0.3689053655E+00      0.1445148762E+01
          0                 2           2             8    2     1       0.2200833090E-02       8    2    1         0.5715842345E-01      0.3257850324E+00
          0                 3           2             8    2     1       0.9891207947E-03       8    2    1         0.2568873800E-01      0.1151420478E+00
          0                 4           2             8    2     1       0.4445403776E-03       8    2    1         0.1154529260E-01      0.4929825338E-01
          0                 5           2             8    2     1       0.1997895390E-03       8    2    1         0.5188798041E-02      0.2191379695E-01
          0                 6           1             8    2     1       0.8979123016E-04       8    2    1         0.2331998347E-02      0.9799144475E-02
          0                 7           1             8    2     1       0.4035475705E-04       8    2    1         0.1048067733E-02      0.4386229656E-02
          0                 8           1             8    2     1       0.1813657120E-04       8    2    1         0.4710316618E-03      0.1963799483E-02
          0                 9           1             8    2     1       0.8151081635E-05       8    2    1         0.2116949400E-03      0.8793273040E-03

    ------------------------------------------------
       NWT REQUIRED            9 OUTER ITERATIONS 
       AND A TOTAL OF         14 INNER ITERATIONS.
    ------------------------------------------------

 NO OUTPUT CONTROL FOR STRESS PERIOD   24   TIME STEP    5
 
 SOLVING FOR HEAD 
                                                   Max.-Head-Change                         Max.-Flux-Residual
  Residual-Control   Outer-Iter.   Inner-Iter.     Column Row Layer    Maximum-Head-Change  Column Row Layer    Maximum-Flux-Residual          L2-NORM 
          0                 1           2             5   13     1       0.6719250615E-02       5   13    1         0.3592220884E+00      0.1438896133E+01
          0                 2           2             8    2     1       0.2199757524E-02       8    2    1         0.5713049633E-01      0.3253397571E+00
          0                 3           2             8    2     1       0.9886372608E-03       8    2    1         0.2567618303E-01      0.1150595790E+00
          0                 4           2             8    2     1       0.4443229980E-03       8    2    1         0.1153964835E-01      0.4926496825E-01
          0                 5           2             8    2     1       0.1996918136E-03       8    2    1         0.5186260598E-02      0.2189902767E-01
          0                 6           1             8    2     1       0.8974729615E-04       8    2    1         0.2330857601E-02      0.9792523680E-02
          0                 7           1             8    2     1       0.4033500553E-04       8    2    1         0.1047554893E-02      0.4383253176E-02
          0                 8           1             8    2     1       0.1812769176E-04       8    2    1         0.4708011098E-03      0.1962458855E-02
          0                 9           1             8    2     1       0.8147090113E-05       8    2    1         0.2115912920E-03      0.8787241868E-03

    ------------------------------------------------
       NWT REQUIRED            9 OUTER ITERATIONS 
       AND A TOTAL OF         14 INNER ITERATIONS.
    ------------------------------------------------

 NO OUTPUT CONTROL FOR STRESS PERIOD   24   TIME STEP    6
 
 SOLVING FOR HEAD 
                                                   Max.-Head-Change                         Max.-Flux-Residual
  Residual-Control   Outer-Iter.   Inner-Iter.     Column Row Layer    Maximum-Head-Change  Column Row Layer    Maximum-Flux-Residual          L2-NORM 
          0                 1           2             5   13     1       0.6545189441E-02       5   13    1         0.3498599625E+00      0.1433365785E+01
          0                 2           2             8    2     1       0.2198683836E-02       8    2    1         0.5710262032E-01      0.3249578064E+00
          0                 3           2             8    2     1       0.9881545220E-03       8    2    1         0.2566364974E-01      0.1149825505E+00
          0                 4           2             8    2     1       0.4441059547E-03       8    2    1         0.1153401328E-01      0.4923237823E-01
          0                 5           2             8    2     1       0.1995942288E-03       8    2    1         0.5183727024E-02      0.2188438377E-01
          0                 6           1             8    2     1       0.8970342143E-04       8    2    1         0.2329718486E-02      0.9785926955E-02
          0                 7           1             8    2     1       0.4031527902E-04       8    2    1         0.1047042736E-02      0.4380280392E-02
          0                 8           1             8    2     1       0.1811882257E-04       8    2    1         0.4705708386E-03      0.1961119110E-02
          0                 9           1             8    2     1       0.8143102343E-05       8    2    1         0.2114877614E-03      0.8781211788E-03

    ------------------------------------------------
       NWT REQUIRED            9 OUTER ITERATIONS 
       AND A TOTAL OF         14 INNER ITERATIONS.
    ------------------------------------------------

 NO OUTPUT CONTROL FOR STRESS PERIOD   24   TIME STEP    7
 
 SOLVING FOR HEAD 
                                                   Max.-Head-Change                         Max.-Flux-Residual
  Residual-Control   Outer-Iter.   Inner-Iter.     Column Row Layer    Maximum-Head-Change  Column Row Layer    Maximum-Flux-Residual          L2-NORM 
          0                 1           2             5   13     1       0.6376994690E-02       5   13    1         0.3408135901E+00      0.1428064121E+01
          0                 2           2             8    2     1       0.2197565440E-02       8    2    1         0.5707357859E-01      0.3245884977E+00
          0                 3           2             8    2     1       0.9876517858E-03       8    2    1         0.2565059506E-01      0.1149069700E+00
          0                 4           2             8    2     1       0.4438799668E-03       8    2    1         0.1152814501E-01      0.4919956782E-01
          0                 5           2             8    2     1       0.1994926435E-03       8    2    1         0.5181089136E-02      0.2186928933E-01
          0                 6           1             8    2     1       0.8965775690E-04       8    2    1         0.2328532706E-02      0.9778993606E-02
          0                 7           1             8    2     1       0.4029475191E-04       8    2    1         0.1046509705E-02      0.4377107086E-02
          0                 8           1             8    2     1       0.1810959523E-04       8    2    1         0.4703312284E-03      0.1959671909E-02
          0                 9           1             8    2     1       0.8138954501E-05       8    2    1         0.2113800487E-03      0.8774610532E-03

    ------------------------------------------------
       NWT REQUIRED            9 OUTER ITERATIONS 
       AND A TOTAL OF         14 INNER ITERATIONS.
    ------------------------------------------------

 NO OUTPUT CONTROL FOR STRESS PERIOD   24   TIME STEP    8
 
 SOLVING FOR HEAD 
                                                   Max.-Head-Change                         Max.-Flux-Residual
  Residual-Control   Outer-Iter.   Inner-Iter.     Column Row Layer    Maximum-Head-Change  Column Row Layer    Maximum-Flux-Residual          L2-NORM 
          0                 1           2             5   13     1       0.6214336968E-02       5   13    1         0.3320653705E+00      0.1423018840E+01
          0                 2           2             8    2     1       0.2196496181E-02       8    2    1         0.5704581534E-01      0.3241605076E+00
          0                 3           2             8    2     1       0.9871710846E-03       8    2    1         0.2563811370E-01      0.1147928237E+00
          0                 4           2             8    2     1       0.4436638602E-03       8    2    1         0.1152253382E-01      0.4915052370E-01
          0                 5           2             8    2     1       0.1993954893E-03       8    2    1         0.5178566547E-02      0.2184770405E-01
          0                 6           1             8    2     1       0.8961407951E-04       8    2    1         0.2327398640E-02      0.9769478936E-02
          0                 7           1             8    2     1       0.4027511644E-04       8    2    1         0.1045999871E-02      0.4372905489E-02
          0                 8           1             8    2     1       0.1810076731E-04       8    2    1         0.4701020229E-03      0.1957812591E-02
          0                 9           1             8    2     1       0.8134985989E-05       8    2    1         0.2112770084E-03      0.8766379931E-03

    ------------------------------------------------
       NWT REQUIRED            9 OUTER ITERATIONS 
       AND A TOTAL OF         14 INNER ITERATIONS.
    ------------------------------------------------

 NO OUTPUT CONTROL FOR STRESS PERIOD   24   TIME STEP    9
 
 SOLVING FOR HEAD 
                                                   Max.-Head-Change                         Max.-Flux-Residual
  Residual-Control   Outer-Iter.   Inner-Iter.     Column Row Layer    Maximum-Head-Change  Column Row Layer    Maximum-Flux-Residual          L2-NORM 
          0                 1           2             5   13     1       0.6057122480E-02       5   13    1         0.3236102992E+00      0.1418378000E+01
          0                 2           2             8    2     1       0.2195428666E-02       8    2    1         0.5701810106E-01      0.3238065805E+00
          0                 3           2             8    2     1       0.9866910900E-03       8    2    1         0.2562565232E-01      0.1147089123E+00
          0                 4           2             8    2     1       0.4434480366E-03       8    2    1         0.1151693072E-01      0.4911444186E-01
          0                 5           2             8    2     1       0.1992984467E-03       8    2    1         0.5176047173E-02      0.2183157764E-01
          0                 6           1             8    2     1       0.8957044514E-04       8    2    1         0.2326265831E-02      0.9762257356E-02
          0                 7           1             8    2     1       0.4025549673E-04       8    2    1         0.1045490517E-02      0.4369668281E-02
          0                 8           1             8    2     1       0.1809194564E-04       8    2    1         0.4698729973E-03      0.1956360619E-02
          0                 9           1             8    2     1       0.8131019228E-05       8    2    1         0.2111740308E-03      0.8759861809E-03

    ------------------------------------------------
       NWT REQUIRED            9 OUTER ITERATIONS 
       AND A TOTAL OF         14 INNER ITERATIONS.
    ------------------------------------------------

 NO OUTPUT CONTROL FOR STRESS PERIOD   24   TIME STEP   10
 
 SOLVING FOR HEAD 
                                                   Max.-Head-Change                         Max.-Flux-Residual
  Residual-Control   Outer-Iter.   Inner-Iter.     Column Row Layer    Maximum-Head-Change  Column Row Layer    Maximum-Flux-Residual          L2-NORM 
          0                 1           2             5   13     1       0.5905031525E-02       5   13    1         0.3154312571E+00      0.1414006526E+01
          0                 2           2             8    2     1       0.2194316421E-02       8    2    1         0.5698921913E-01      0.3234841625E+00
          0                 3           2             8    2     1       0.9861911183E-03       8    2    1         0.2561266944E-01      0.1146369146E+00
          0                 4           2             8    2     1       0.4432232908E-03       8    2    1         0.1151109471E-01      0.4908331004E-01
          0                 5           2             8    2     1       0.1991974199E-03       8    2    1         0.5173423794E-02      0.2181746128E-01
          0                 6           1             8    2     1       0.8952503197E-04       8    2    1         0.2325086575E-02      0.9755858381E-02
          0                 7           1             8    2     1       0.4023508242E-04       8    2    1         0.1044960417E-02      0.4366772033E-02
          0                 8           1             8    2     1       0.1808276907E-04       8    2    1         0.4696347076E-03      0.1955051018E-02
          0                 9           1             8    2     1       0.8126894147E-05       8    2    1         0.2110669144E-03      0.8753948563E-03

    ------------------------------------------------
       NWT REQUIRED            9 OUTER ITERATIONS 
       AND A TOTAL OF         14 INNER ITERATIONS.
    ------------------------------------------------

 NO OUTPUT CONTROL FOR STRESS PERIOD   24   TIME STEP   11
 
 SOLVING FOR HEAD 
                                                   Max.-Head-Change                         Max.-Flux-Residual
  Residual-Control   Outer-Iter.   Inner-Iter.     Column Row Layer    Maximum-Head-Change  Column Row Layer    Maximum-Flux-Residual          L2-NORM 
          0                 1           2             5   13     1       0.5757726515E-02       5   13    1         0.3075243438E+00      0.1409719123E+01
          0                 2           2             8    2     1       0.2193253313E-02       8    2    1         0.5696161569E-01      0.3231674655E+00
          0                 3           2             8    2     1       0.9857131801E-03       8    2    1         0.2560025987E-01      0.1145703398E+00
          0                 4           2             8    2     1       0.4430084254E-03       8    2    1         0.1150551577E-01      0.4905398487E-01
          0                 5           2             8    2     1       0.1991008230E-03       8    2    1         0.5170915681E-02      0.2180385983E-01
          0                 6           1             8    2     1       0.8948160494E-04       8    2    1         0.2323959008E-02      0.9749594940E-02
          0                 7           1             8    2     1       0.4021555925E-04       8    2    1         0.1044453501E-02      0.4363907222E-02
          0                 8           1             8    2     1       0.1807399167E-04       8    2    1         0.4694068117E-03      0.1953746816E-02
          0                 9           1             8    2     1       0.8122948395E-05       8    2    1         0.2109644608E-03      0.8748029029E-03

    ------------------------------------------------
       NWT REQUIRED            9 OUTER ITERATIONS 
       AND A TOTAL OF         14 INNER ITERATIONS.
    ------------------------------------------------

 NO OUTPUT CONTROL FOR STRESS PERIOD   24   TIME STEP   12
 
 SOLVING FOR HEAD 
                                                   Max.-Head-Change                         Max.-Flux-Residual
  Residual-Control   Outer-Iter.   Inner-Iter.     Column Row Layer    Maximum-Head-Change  Column Row Layer    Maximum-Flux-Residual          L2-NORM 
          0                 1           2             5   13     1       0.5615036142E-02       5   13    1         0.2998582391E+00      0.1405785424E+01
          0                 2           2             8    2     1       0.2192145217E-02       8    2    1         0.5693284390E-01      0.3228486826E+00
          0                 3           2             8    2     1       0.9852150229E-03       8    2    1         0.2558732518E-01      0.1144915073E+00
          0                 4           2             8    2     1       0.4427844730E-03       8    2    1         0.1149970084E-01      0.4902001291E-01
          0                 5           2             8    2     1       0.1990001426E-03       8    2    1         0.5168301509E-02      0.2178863367E-01
          0                 6           1             8    2     1       0.8943634285E-04       8    2    1         0.2322783773E-02      0.9742760579E-02
          0                 7           1             8    2     1       0.4019521096E-04       8    2    1         0.1043925155E-02      0.4360839229E-02
          0                 8           1             8    2     1       0.1806484386E-04       8    2    1         0.4691692863E-03      0.1952369316E-02
          0                 9           1             8    2     1       0.8118835569E-05       8    2    1         0.2108576751E-03      0.8741842341E-03

    ------------------------------------------------
       NWT REQUIRED            9 OUTER ITERATIONS 
       AND A TOTAL OF         14 INNER ITERATIONS.
    ------------------------------------------------

 NO OUTPUT CONTROL FOR STRESS PERIOD   24   TIME STEP   13
 
 SOLVING FOR HEAD 
                                                   Max.-Head-Change                         Max.-Flux-Residual
  Residual-Control   Outer-Iter.   Inner-Iter.     Column Row Layer    Maximum-Head-Change  Column Row Layer    Maximum-Flux-Residual          L2-NORM 
          0                 1           2             5   13     1       0.5476908872E-02       5   13    1         0.2924342949E+00      0.1401673605E+01
          0                 2           2             8    2     1       0.2191086278E-02       8    2    1         0.5690534878E-01      0.3224838365E+00
          0                 3           2             8    2     1       0.9847389576E-03       8    2    1         0.2557496427E-01      0.1144085085E+00
          0                 4           2             8    2     1       0.4425704490E-03       8    2    1         0.1149414376E-01      0.4898614104E-01
          0                 5           2             8    2     1       0.1989039236E-03       8    2    1         0.5165803218E-02      0.2177364646E-01
          0                 6           1             8    2     1       0.8939308589E-04       8    2    1         0.2321660621E-02      0.9736055710E-02
          0                 7           1             8    2     1       0.4017576358E-04       8    2    1         0.1043420218E-02      0.4357831914E-02
          0                 8           1             8    2     1       0.1805610123E-04       8    2    1         0.4689422817E-03      0.1951018844E-02
          0                 9           1             8    2     1       0.8114905074E-05       8    2    1         0.2107556180E-03      0.8735774615E-03

    ------------------------------------------------
       NWT REQUIRED            9 OUTER ITERATIONS 
       AND A TOTAL OF         14 INNER ITERATIONS.
    ------------------------------------------------

 NO OUTPUT CONTROL FOR STRESS PERIOD   24   TIME STEP   14
 
 SOLVING FOR HEAD 
                                                   Max.-Head-Change                         Max.-Flux-Residual
  Residual-Control   Outer-Iter.   Inner-Iter.     Column Row Layer    Maximum-Head-Change  Column Row Layer    Maximum-Flux-Residual          L2-NORM 
          0                 1           2             5   13     1       0.5343273559E-02       5   13    1         0.2852482207E+00      0.1397755200E+01
          0                 2           2             8    2     1       0.2189982217E-02       8    2    1         0.5687668311E-01      0.3221531939E+00
          0                 3           2             8    2     1       0.9842425852E-03       8    2    1         0.2556207653E-01      0.1143328668E+00
          0                 4           2             8    2     1       0.4423472859E-03       8    2    1         0.1148834959E-01      0.4895452019E-01
          0                 5           2             8    2     1       0.1988035925E-03       8    2    1         0.5163198234E-02      0.2175950042E-01
          0                 6           1             8    2     1       0.8934797787E-04       8    2    1         0.2320489447E-02      0.9729684053E-02
          0                 7           1             8    2     1       0.4015548383E-04       8    2    1         0.1042893676E-02      0.4354958182E-02
          0                 8           1             8    2     1       0.1804698368E-04       8    2    1         0.4687055537E-03      0.1949722539E-02
          0                 9           1             8    2     1       0.8110805504E-05       8    2    1         0.2106491853E-03      0.8729930030E-03

    ------------------------------------------------
       NWT REQUIRED            9 OUTER ITERATIONS 
       AND A TOTAL OF         14 INNER ITERATIONS.
    ------------------------------------------------

 NO OUTPUT CONTROL FOR STRESS PERIOD   24   TIME STEP   15
 
 SOLVING FOR HEAD 
                                                   Max.-Head-Change                         Max.-Flux-Residual
  Residual-Control   Outer-Iter.   Inner-Iter.     Column Row Layer    Maximum-Head-Change  Column Row Layer    Maximum-Flux-Residual          L2-NORM 
          0                 1           2             5   13     1       0.5213904078E-02       5   13    1         0.2782922953E+00      0.1394379655E+01
          0                 2           2             8    2     1       0.2188927324E-02       8    2    1         0.5684929310E-01      0.3218768089E+00
          0                 3           2             8    2     1       0.9837683386E-03       8    2    1         0.2554976285E-01      0.1142642140E+00
          0                 4           2             8    2     1       0.4421340790E-03       8    2    1         0.1148281375E-01      0.4892426233E-01
          0                 5           2             8    2     1       0.1987077410E-03       8    2    1         0.5160709487E-02      0.2174568939E-01
          0                 6           1             8    2     1       0.8930488599E-04       8    2    1         0.2319370583E-02      0.9723398415E-02
          0                 7           1             8    2     1       0.4013611072E-04       8    2    1         0.1042390666E-02      0.4352106739E-02
          0                 8           1             8    2     1       0.1803827431E-04       8    2    1         0.4684794169E-03      0.1948431131E-02
          0                 9           1             8    2     1       0.8106890266E-05       8    2    1         0.2105475218E-03      0.8724086873E-03

    ------------------------------------------------
       NWT REQUIRED            9 OUTER ITERATIONS 
       AND A TOTAL OF         14 INNER ITERATIONS.
    ------------------------------------------------

 NO OUTPUT CONTROL FOR STRESS PERIOD   24   TIME STEP   16
 
 SOLVING FOR HEAD 
                                                   Max.-Head-Change                         Max.-Flux-Residual
  Residual-Control   Outer-Iter.   Inner-Iter.     Column Row Layer    Maximum-Head-Change  Column Row Layer    Maximum-Flux-Residual          L2-NORM 
          0                 1           2             5   13     1       0.5088870747E-02       5   13    1         0.2715704091E+00      0.1390898120E+01
          0                 2           2             8    2     1       0.2187827403E-02       8    2    1         0.5682073364E-01      0.3215611940E+00
          0                 3           2             8    2     1       0.9832738541E-03       8    2    1         0.2553692357E-01      0.1141881626E+00
          0                 4           2             8    2     1       0.4419117770E-03       8    2    1         0.1147704168E-01      0.4889257418E-01
          0                 5           2             8    2     1       0.1986078021E-03       8    2    1         0.5158114574E-02      0.2173153609E-01
          0                 6           1             8    2     1       0.8925995704E-04       8    2    1         0.2318204003E-02      0.9717022428E-02
          0                 7           1             8    2     1       0.4011591201E-04       8    2    1         0.1041866211E-02      0.4349229593E-02
          0                 8           1             8    2     1       0.1802919353E-04       8    2    1         0.4682436428E-03      0.1947133068E-02
          0                 9           1             8    2     1       0.8102807953E-05       8    2    1         0.2104415276E-03      0.8718230471E-03

    ------------------------------------------------
       NWT REQUIRED            9 OUTER ITERATIONS 
       AND A TOTAL OF         14 INNER ITERATIONS.
    ------------------------------------------------

 NO OUTPUT CONTROL FOR STRESS PERIOD   24   TIME STEP   17
 
 SOLVING FOR HEAD 
                                                   Max.-Head-Change                         Max.-Flux-Residual
  Residual-Control   Outer-Iter.   Inner-Iter.     Column Row Layer    Maximum-Head-Change  Column Row Layer    Maximum-Flux-Residual          L2-NORM 
          0                 1           2             5   13     1       0.4967893397E-02       5   13    1         0.2650673179E+00      0.1387721937E+01
          0                 2           2             8    2     1       0.2186776526E-02       8    2    1         0.5679344925E-01      0.3212689012E+00
          0                 3           2             8    2     1       0.9828013836E-03       8    2    1         0.2552465661E-01      0.1141124494E+00
          0                 4           2             8    2     1       0.4416993555E-03       8    2    1         0.1147152650E-01      0.4886036754E-01
          0                 5           2             8    2     1       0.1985122980E-03       8    2    1         0.5155634967E-02      0.2171715626E-01
          0                 6           1             8    2     1       0.8921701872E-04       8    2    1         0.2317089181E-02      0.9710564375E-02
          0                 7           1             8    2     1       0.4009660744E-04       8    2    1         0.1041364990E-02      0.4346324043E-02
          0                 8           1             8    2     1       0.1802051368E-04       8    2    1         0.4680182900E-03      0.1945824815E-02
          0                 9           1             8    2     1       0.8098905721E-05       8    2    1         0.2103402138E-03      0.8712341942E-03

    ------------------------------------------------
       NWT REQUIRED            9 OUTER ITERATIONS 
       AND A TOTAL OF         14 INNER ITERATIONS.
    ------------------------------------------------

 NO OUTPUT CONTROL FOR STRESS PERIOD   24   TIME STEP   18
 
 SOLVING FOR HEAD 
                                                   Max.-Head-Change                         Max.-Flux-Residual
  Residual-Control   Outer-Iter.   Inner-Iter.     Column Row Layer    Maximum-Head-Change  Column Row Layer    Maximum-Flux-Residual          L2-NORM 
          0                 1           2             8    2     1       0.4863232861E-02       5   13    1         0.2587741723E+00      0.1384598370E+01
          0                 2           2             8    2     1       0.2185680610E-02       8    2    1         0.5676499385E-01      0.3209969986E+00
          0                 3           2             8    2     1       0.9823086986E-03       8    2    1         0.2551186408E-01      0.1140439914E+00
          0                 4           2             8    2     1       0.4414778614E-03       8    2    1         0.1146577542E-01      0.4883051742E-01
          0                 5           2             8    2     1       0.1984127220E-03       8    2    1         0.5153049484E-02      0.2170356306E-01
          0                 6           1             8    2     1       0.8917225260E-04       8    2    1         0.2315926831E-02      0.9704373202E-02
          0                 7           1             8    2     1       0.4007648175E-04       8    2    1         0.1040842436E-02      0.4343509816E-02
          0                 8           1             8    2     1       0.1801146616E-04       8    2    1         0.4677833681E-03      0.1944547846E-02
          0                 9           1             8    2     1       0.8094837915E-05       8    2    1         0.2102345962E-03      0.8706550354E-03

    ------------------------------------------------
       NWT REQUIRED            9 OUTER ITERATIONS 
       AND A TOTAL OF         14 INNER ITERATIONS.
    ------------------------------------------------

 NO OUTPUT CONTROL FOR STRESS PERIOD   24   TIME STEP   19
 
 SOLVING FOR HEAD 
                                                   Max.-Head-Change                         Max.-Flux-Residual
  Residual-Control   Outer-Iter.   Inner-Iter.     Column Row Layer    Maximum-Head-Change  Column Row Layer    Maximum-Flux-Residual          L2-NORM 
          0                 1           2             8    2     1       0.4860799876E-02       5   13    1         0.2526888025E+00      0.1381864580E+01
          0                 2           2             8    2     1       0.2184586874E-02       8    2    1         0.5673659406E-01      0.3207460664E+00
          0                 3           2             8    2     1       0.9818170148E-03       8    2    1         0.2549909710E-01      0.1139731312E+00
          0                 4           2             8    2     1       0.4412568277E-03       8    2    1         0.1146003609E-01      0.4879945029E-01
          0                 5           2             8    2     1       0.1983133569E-03       8    2    1         0.5150469391E-02      0.2168956606E-01
          0                 6           1             8    2     1       0.8912758352E-04       8    2    1         0.2314766964E-02      0.9698057035E-02
          0                 7           1             8    2     1       0.4005640083E-04       8    2    1         0.1040321020E-02      0.4340658502E-02
          0                 8           1             8    2     1       0.1800243915E-04       8    2    1         0.4675489680E-03      0.1943260606E-02
          0                 9           1             8    2     1       0.8090779863E-05       8    2    1         0.2101292176E-03      0.8700742719E-03

    ------------------------------------------------
       NWT REQUIRED            9 OUTER ITERATIONS 
       AND A TOTAL OF         14 INNER ITERATIONS.
    ------------------------------------------------

 NO OUTPUT CONTROL FOR STRESS PERIOD   24   TIME STEP   20
 
 SOLVING FOR HEAD 
                                                   Max.-Head-Change                         Max.-Flux-Residual
  Residual-Control   Outer-Iter.   Inner-Iter.     Column Row Layer    Maximum-Head-Change  Column Row Layer    Maximum-Flux-Residual          L2-NORM 
          0                 1           2             8    2     1       0.4858476155E-02      10    5    1         0.2481390449E+00      0.1379192621E+01
          0                 2           2             8    2     1       0.2183542088E-02       8    2    1         0.5670946888E-01      0.3204880280E+00
          0                 3           2             8    2     1       0.9813472605E-03       8    2    1         0.2548690114E-01      0.1139006718E+00
          0                 4           2             8    2     1       0.4410456175E-03       8    2    1         0.1145455257E-01      0.4876814673E-01
          0                 5           2             8    2     1       0.1982183927E-03       8    2    1         0.5148003898E-02      0.2167556308E-01
          0                 6           1             8    2     1       0.8908488556E-04       8    2    1         0.2313658432E-02      0.9691762537E-02
          0                 7           1             8    2     1       0.4003720331E-04       8    2    1         0.1039822609E-02      0.4337822797E-02
          0                 8           1             8    2     1       0.1799380757E-04       8    2    1         0.4673248747E-03      0.1941981924E-02
          0                 9           1             8    2     1       0.8086898640E-05       8    2    1         0.2100284620E-03      0.8694973423E-03

    ------------------------------------------------
       NWT REQUIRED            9 OUTER ITERATIONS 
       AND A TOTAL OF         14 INNER ITERATIONS.
    ------------------------------------------------

 NO OUTPUT CONTROL FOR STRESS PERIOD   24   TIME STEP   21
 
 SOLVING FOR HEAD 
                                                   Max.-Head-Change                         Max.-Flux-Residual
  Residual-Control   Outer-Iter.   Inner-Iter.     Column Row Layer    Maximum-Head-Change  Column Row Layer    Maximum-Flux-Residual          L2-NORM 
          0                 1           2             8    2     1       0.4856051819E-02      10    5    1         0.2481136477E+00      0.1376487685E+01
          0                 2           2             8    2     1       0.2182452129E-02       8    2    1         0.5668116953E-01      0.3202146735E+00
          0                 3           2             8    2     1       0.9808572249E-03       8    2    1         0.2547417801E-01      0.1138279260E+00
          0                 4           2             8    2     1       0.4408253016E-03       8    2    1         0.1144883236E-01      0.4873742317E-01
          0                 5           2             8    2     1       0.1981193410E-03       8    2    1         0.5145432146E-02      0.2166177316E-01
          0                 6           1             8    2     1       0.8904035279E-04       8    2    1         0.2312502194E-02      0.9685522518E-02
          0                 7           1             8    2     1       0.4001718142E-04       8    2    1         0.1039302770E-02      0.4334997416E-02
          0                 8           1             8    2     1       0.1798480582E-04       8    2    1         0.4670911592E-03      0.1940703129E-02
          0                 9           1             8    2     1       0.8082851593E-05       8    2    1         0.2099233860E-03      0.8689189148E-03

    ------------------------------------------------
       NWT REQUIRED            9 OUTER ITERATIONS 
       AND A TOTAL OF         14 INNER ITERATIONS.
    ------------------------------------------------

 NO OUTPUT CONTROL FOR STRESS PERIOD   24   TIME STEP   22
 
 SOLVING FOR HEAD 
                                                   Max.-Head-Change                         Max.-Flux-Residual
  Residual-Control   Outer-Iter.   Inner-Iter.     Column Row Layer    Maximum-Head-Change  Column Row Layer    Maximum-Flux-Residual          L2-NORM 
          0                 1           2             8    2     1       0.4853632201E-02      10    5    1         0.2480906917E+00      0.1373864954E+01
          0                 2           2             8    2     1       0.2181364461E-02       8    2    1         0.5665292605E-01      0.3199524847E+00
          0                 3           2             8    2     1       0.9803682953E-03       8    2    1         0.2546148199E-01      0.1137561854E+00
          0                 4           2             8    2     1       0.4406055171E-03       8    2    1         0.1144312523E-01      0.4870659478E-01
          0                 5           2             8    2     1       0.1980205426E-03       8    2    1         0.5142866664E-02      0.2164797838E-01
          0                 6           1             8    2     1       0.8899594057E-04       8    2    1         0.2311348949E-02      0.9679300545E-02
          0                 7           1             8    2     1       0.3999721706E-04       8    2    1         0.1038784358E-02      0.4332189308E-02
          0                 8           1             8    2     1       0.1797583109E-04       8    2    1         0.4668581188E-03      0.1939435612E-02
          0                 9           1             8    2     1       0.8078817552E-05       8    2    1         0.2098186326E-03      0.8683468653E-03

    ------------------------------------------------
       NWT REQUIRED            9 OUTER ITERATIONS 
       AND A TOTAL OF         14 INNER ITERATIONS.
    ------------------------------------------------

 NO OUTPUT CONTROL FOR STRESS PERIOD   24   TIME STEP   23
 
 SOLVING FOR HEAD 
                                                   Max.-Head-Change                         Max.-Flux-Residual
  Residual-Control   Outer-Iter.   Inner-Iter.     Column Row Layer    Maximum-Head-Change  Column Row Layer    Maximum-Flux-Residual          L2-NORM 
          0                 1           2             8    2     1       0.4851217279E-02      10    5    1         0.2480649749E+00      0.1371448453E+01
          0                 2           2             8    2     1       0.2180278731E-02       8    2    1         0.5662473657E-01      0.3196835480E+00
          0                 3           2             8    2     1       0.9798801591E-03       8    2    1         0.2544880821E-01      0.1136754837E+00
          0                 4           2             8    2     1       0.4403860549E-03       8    2    1         0.1143742720E-01      0.4867205398E-01
          0                 5           2             8    2     1       0.1979218743E-03       8    2    1         0.5140304873E-02      0.2163262231E-01
          0                 6           1             8    2     1       0.8895157963E-04       8    2    1         0.2310197184E-02      0.9672456216E-02
          0                 7           1             8    2     1       0.3997727295E-04       8    2    1         0.1038266536E-02      0.4329131722E-02
          0                 8           1             8    2     1       0.1796686436E-04       8    2    1         0.4666253076E-03      0.1938068028E-02
          0                 9           1             8    2     1       0.8074786012E-05       8    2    1         0.2097139600E-03      0.8677350791E-03

    ------------------------------------------------
       NWT REQUIRED            9 OUTER ITERATIONS 
       AND A TOTAL OF         14 INNER ITERATIONS.
    ------------------------------------------------

 NO OUTPUT CONTROL FOR STRESS PERIOD   24   TIME STEP   24
 
 SOLVING FOR HEAD 
                                                   Max.-Head-Change                         Max.-Flux-Residual
  Residual-Control   Outer-Iter.   Inner-Iter.     Column Row Layer    Maximum-Head-Change  Column Row Layer    Maximum-Flux-Residual          L2-NORM 
          0                 1           2             8    2     1       0.4848806847E-02      10    5    1         0.2480390566E+00      0.1368954133E+01
          0                 2           2             8    2     1       0.2179195082E-02       8    2    1         0.5659659980E-01      0.3194076104E+00
          0                 3           2             8    2     1       0.9793929866E-03       8    2    1         0.2543615887E-01      0.1136003806E+00
          0                 4           2             8    2     1       0.4401670381E-03       8    2    1         0.1143174047E-01      0.4864060333E-01
          0                 5           2             8    2     1       0.1978234111E-03       8    2    1         0.5137748308E-02      0.2161860577E-01
          0                 6           1             8    2     1       0.8890731422E-04       8    2    1         0.2309047841E-02      0.9666150936E-02
          0                 7           1             8    2     1       0.3995737262E-04       8    2    1         0.1037749827E-02      0.4326289983E-02
          0                 8           1             8    2     1       0.1795791764E-04       8    2    1         0.4663930112E-03      0.1936786563E-02
          0                 9           1             8    2     1       0.8070763976E-05       8    2    1         0.2096095278E-03      0.8671566418E-03

    ------------------------------------------------
       NWT REQUIRED            9 OUTER ITERATIONS 
       AND A TOTAL OF         14 INNER ITERATIONS.
    ------------------------------------------------

 NO OUTPUT CONTROL FOR STRESS PERIOD   24   TIME STEP   25
 
 SOLVING FOR HEAD 
                                                   Max.-Head-Change                         Max.-Flux-Residual
  Residual-Control   Outer-Iter.   Inner-Iter.     Column Row Layer    Maximum-Head-Change  Column Row Layer    Maximum-Flux-Residual          L2-NORM 
          0                 1           2             8    2     1       0.4846400896E-02      10    5    1         0.2480155715E+00      0.1366594713E+01
          0                 2           2             8    2     1       0.2178113385E-02       8    2    1         0.5656851502E-01      0.3191597926E+00
          0                 3           2             8    2     1       0.9789066639E-03       8    2    1         0.2542353216E-01      0.1135306560E+00
          0                 4           2             8    2     1       0.4399483916E-03       8    2    1         0.1142606361E-01      0.4861062369E-01
          0                 5           2             8    2     1       0.1977251095E-03       8    2    1         0.5135196035E-02      0.2160513711E-01
          0                 6           1             8    2     1       0.8886311860E-04       8    2    1         0.2307900357E-02      0.9660073347E-02
          0                 7           1             8    2     1       0.3993750255E-04       8    2    1         0.1037233923E-02      0.4323547306E-02
          0                 8           1             8    2     1       0.1794898392E-04       8    2    1         0.4661610617E-03      0.1935552540E-02
          0                 9           1             8    2     1       0.8066747443E-05       8    2    1         0.2095052466E-03      0.8665967685E-03

    ------------------------------------------------
       NWT REQUIRED            9 OUTER ITERATIONS 
       AND A TOTAL OF         14 INNER ITERATIONS.
    ------------------------------------------------

 NO OUTPUT CONTROL FOR STRESS PERIOD   24   TIME STEP   26
 
 SOLVING FOR HEAD 
                                                   Max.-Head-Change                         Max.-Flux-Residual
  Residual-Control   Outer-Iter.   Inner-Iter.     Column Row Layer    Maximum-Head-Change  Column Row Layer    Maximum-Flux-Residual          L2-NORM 
          0                 1           2             8    2     1       0.4843999307E-02      10    5    1         0.2479893168E+00      0.1364635330E+01
          0                 2           2             8    2     1       0.2177033648E-02       8    2    1         0.5654048118E-01      0.3189536740E+00
          0                 3           2             8    2     1       0.9784212229E-03       8    2    1         0.2541092836E-01      0.1134648060E+00
          0                 4           2             8    2     1       0.4397301404E-03       8    2    1         0.1142039703E-01      0.4858102501E-01
          0                 5           2             8    2     1       0.1976269854E-03       8    2    1         0.5132648381E-02      0.2159166261E-01
          0                 6           1             8    2     1       0.8881900251E-04       8    2    1         0.2306754947E-02      0.9653957447E-02
          0                 7           1             8    2     1       0.3991766824E-04       8    2    1         0.1036718956E-02      0.4320773795E-02
          0                 8           1             8    2     1       0.1794006646E-04       8    2    1         0.4659295353E-03      0.1934293371E-02
          0                 9           1             8    2     1       0.8062738413E-05       8    2    1         0.2094011536E-03      0.8660548695E-03

    ------------------------------------------------
       NWT REQUIRED            9 OUTER ITERATIONS 
       AND A TOTAL OF         14 INNER ITERATIONS.
    ------------------------------------------------

 NO OUTPUT CONTROL FOR STRESS PERIOD   24   TIME STEP   27
 
 SOLVING FOR HEAD 
                                                   Max.-Head-Change                         Max.-Flux-Residual
  Residual-Control   Outer-Iter.   Inner-Iter.     Column Row Layer    Maximum-Head-Change  Column Row Layer    Maximum-Flux-Residual          L2-NORM 
          0                 1           2             8    2     1       0.4841602386E-02      10    5    1         0.2479654414E+00      0.1362595211E+01
          0                 2           2             8    2     1       0.2175956182E-02       8    2    1         0.5651250263E-01      0.3186118761E+00
          0                 3           2             8    2     1       0.9779368784E-03       8    2    1         0.2539835141E-01      0.1133257884E+00
          0                 4           2             8    2     1       0.4395124168E-03       8    2    1         0.1141474342E-01      0.4851937657E-01
          0                 5           2             8    2     1       0.1975291137E-03       8    2    1         0.5130106955E-02      0.2156457402E-01
          0                 6           1             8    2     1       0.8877500673E-04       8    2    1         0.2305612518E-02      0.9642048759E-02
          0                 7           1             8    2     1       0.3989789096E-04       8    2    1         0.1036205407E-02      0.4315528896E-02
          0                 8           1             8    2     1       0.1793117651E-04       8    2    1         0.4656986859E-03      0.1931980410E-02
          0                 9           1             8    2     1       0.8058741889E-05       8    2    1         0.2092973796E-03      0.8650133724E-03

    ------------------------------------------------
       NWT REQUIRED            9 OUTER ITERATIONS 
       AND A TOTAL OF         14 INNER ITERATIONS.
    ------------------------------------------------

 NO OUTPUT CONTROL FOR STRESS PERIOD   24   TIME STEP   28
 
 SOLVING FOR HEAD 
                                                   Max.-Head-Change                         Max.-Flux-Residual
  Residual-Control   Outer-Iter.   Inner-Iter.     Column Row Layer    Maximum-Head-Change  Column Row Layer    Maximum-Flux-Residual          L2-NORM 
          0                 1           2             8    2     1       0.4839210114E-02      10    5    1         0.2479387926E+00      0.1360526296E+01
          0                 2           2             8    2     1       0.2174880632E-02       8    2    1         0.5648457753E-01      0.3183599233E+00
          0                 3           2             8    2     1       0.9774533172E-03       8    2    1         0.2538579646E-01      0.1132478201E+00
          0                 4           2             8    2     1       0.4392950107E-03       8    2    1         0.1140909879E-01      0.4848562574E-01
          0                 5           2             8    2     1       0.1974313688E-03       8    2    1         0.5127569159E-02      0.2154952756E-01
          0                 6           1             8    2     1       0.8873106122E-04       8    2    1         0.2304471539E-02      0.9635313110E-02
          0                 7           1             8    2     1       0.3987813319E-04       8    2    1         0.1035692429E-02      0.4312508402E-02
          0                 8           1             8    2     1       0.1792229332E-04       8    2    1         0.4654680535E-03      0.1930622345E-02
          0                 9           1             8    2     1       0.8054748116E-05       8    2    1         0.2091936889E-03      0.8643979749E-03

    ------------------------------------------------
       NWT REQUIRED            9 OUTER ITERATIONS 
       AND A TOTAL OF         14 INNER ITERATIONS.
    ------------------------------------------------

 NO OUTPUT CONTROL FOR STRESS PERIOD   24   TIME STEP   29
 
 SOLVING FOR HEAD 
                                                   Max.-Head-Change                         Max.-Flux-Residual
  Residual-Control   Outer-Iter.   Inner-Iter.     Column Row Layer    Maximum-Head-Change  Column Row Layer    Maximum-Flux-Residual          L2-NORM 
          0                 1           2             8    2     1       0.4836822170E-02      10    5    1         0.2479145626E+00      0.1358677370E+01
          0                 2           2             8    2     1       0.2173807026E-02       8    2    1         0.5645670293E-01      0.3181531982E+00
          0                 3           2             8    2     1       0.9769706311E-03       8    2    1         0.2537326421E-01      0.1131817724E+00
          0                 4           2             8    2     1       0.4390779976E-03       8    2    1         0.1140346436E-01      0.4845620639E-01
          0                 5           2             8    2     1       0.1973338012E-03       8    2    1         0.5125035957E-02      0.2153616541E-01
          0                 6           1             8    2     1       0.8868719525E-04       8    2    1         0.2303332624E-02      0.9629245531E-02
          0                 7           1             8    2     1       0.3985841118E-04       8    2    1         0.1035180378E-02      0.4309756259E-02
          0                 8           1             8    2     1       0.1791342663E-04       8    2    1         0.4652378405E-03      0.1929375266E-02
          0                 9           1             8    2     1       0.8050761596E-05       8    2    1         0.2090901842E-03      0.8638331394E-03

    ------------------------------------------------
       NWT REQUIRED            9 OUTER ITERATIONS 
       AND A TOTAL OF         14 INNER ITERATIONS.
    ------------------------------------------------

 NO OUTPUT CONTROL FOR STRESS PERIOD   24   TIME STEP   30



 STREAM LISTING     PERIOD     24   STEP       30

 LAYER ROW COL. STREAM  RCH.  FLOW INTO     FLOW TO   FLOW OUT OF   OVRLND.     DIRECT     STREAM       STREAM     STREAM     STREAM   STREAMBED  STREAMBED
                SEG.NO.  NO.  STRM. RCH.    AQUIFER    STRM. RCH.    RUNOFF     PRECIP       ET          HEAD       DEPTH      WIDTH   CONDCTNC.   GRADIENT

   1    1    1     1     1    3.5000E+00  8.3255E-02   3.4167E+00  0.000E+00  0.000E+00  0.000E+00  1.09371E+03  6.654E-01  5.047E+00  2.271E-02  1.222E+00
   1    2    2     1     2    3.4167E+00  1.2792E-01   3.2888E+00  0.000E+00  0.000E+00  0.000E+00  1.08872E+03  6.583E-01  4.995E+00  3.497E-02  1.219E+00
   1    3    3     1     3    3.2888E+00  1.0809E-01   3.1807E+00  0.000E+00  0.000E+00  0.000E+00  1.08307E+03  6.502E-01  4.935E+00  2.961E-02  1.217E+00
   1    3    4     1     4    3.1807E+00  9.8702E-02   3.0820E+00  0.000E+00  0.000E+00  0.000E+00  1.07805E+03  6.428E-01  4.882E+00  2.709E-02  1.214E+00
   1    4    5     2     1    1.0820E+00  0.0000E+00   1.0820E+00  0.000E+00  0.000E+00  0.000E+00  1.07212E+03  1.835E-01  1.200E+01  0.000E+00  1.061E+00
   1    5    6     2     2    1.0820E+00  0.0000E+00   1.0820E+00  0.000E+00  0.000E+00  0.000E+00  1.06669E+03  1.835E-01  1.200E+01  0.000E+00  1.061E+00
   1    6    6     2     3    1.0820E+00  0.0000E+00   1.0820E+00  0.000E+00  0.000E+00  0.000E+00  1.06198E+03  1.835E-01  1.200E+01  0.000E+00  1.061E+00
   1    7    6     2     4    1.0820E+00  0.0000E+00   1.0820E+00  0.000E+00  0.000E+00  0.000E+00  1.05726E+03  1.835E-01  1.200E+01  0.000E+00  1.061E+00
   1    8    6     2     5    1.0820E+00  0.0000E+00   1.0820E+00  0.000E+00  0.000E+00  0.000E+00  1.05254E+03  1.835E-01  1.200E+01  0.000E+00  1.061E+00
   1    3    5     3     1    2.0000E+00  2.8252E-01   1.7175E+00  0.000E+00  0.000E+00  0.000E+00  1.07555E+03  1.909E+00  9.636E+00  7.227E-02  1.955E+00
   1    3    6     3     2    1.7175E+00  2.4905E-01   1.4684E+00  0.000E+00  0.000E+00  0.000E+00  1.07264E+03  1.727E+00  8.909E+00  6.682E-02  1.864E+00
   1    3    7     3     3    1.4684E+00  1.9718E-01   1.2712E+00  0.000E+00  0.000E+00  0.000E+00  1.06987E+03  1.555E+00  8.218E+00  5.547E-02  1.777E+00
   1    4    8     3     4    1.2712E+00  2.2567E-01   1.0456E+00  0.000E+00  0.000E+00  0.000E+00  1.06682E+03  1.364E+00  7.455E+00  6.709E-02  1.682E+00
   1    5    8     3     5    1.0456E+00  1.5790E-01   8.8768E-01  0.000E+00  0.000E+00  0.000E+00  1.06362E+03  1.164E+00  6.655E+00  4.991E-02  1.582E+00
   1    6    8     3     6    8.8768E-01  5.5980E-02   8.3170E-01  0.000E+00  0.000E+00  0.000E+00  1.06158E+03  1.036E+00  6.145E+00  1.844E-02  1.518E+00
   1    5   10     4     1    1.0000E+01  0.0000E+00   1.0000E+01  0.000E+00  0.000E+00  0.000E+00  1.07837E+03  6.385E-01  1.000E+01  0.000E+00  1.213E+00
   1    5    9     4     2    1.0000E+01  0.0000E+00   1.0000E+01  0.000E+00  0.000E+00  0.000E+00  1.07155E+03  6.385E-01  1.000E+01  0.000E+00  1.213E+00
   1    6    8     4     3    1.0000E+01  0.0000E+00   1.0000E+01  0.000E+00  0.000E+00  0.000E+00  1.06382E+03  6.385E-01  1.000E+01  0.000E+00  1.213E+00
   1    6    8     5     1    1.0832E+01  2.3262E-01   1.0599E+01  0.000E+00  0.000E+00  0.000E+00  1.05869E+03  6.881E-01  1.577E+01  6.307E-02  1.229E+00
   1    7    7     5     2    1.0599E+01  2.8607E-01   1.0313E+01  0.000E+00  0.000E+00  0.000E+00  1.05418E+03  6.822E-01  1.554E+01  7.769E-02  1.227E+00
   1    8    7     5     3    1.0313E+01  1.9716E-01   1.0116E+01  0.000E+00  0.000E+00  0.000E+00  1.04993E+03  6.766E-01  1.532E+01  5.363E-02  1.226E+00
   1    8    6     5     4    1.0116E+01  1.3929E-01   9.9766E+00  0.000E+00  0.000E+00  0.000E+00  1.04692E+03  6.727E-01  1.517E+01  3.792E-02  1.224E+00
   1    9    6     6     1    1.1059E+01  0.0000E+00   1.1059E+01  0.000E+00  0.000E+00  0.000E+00  1.04348E+03  7.485E-01  1.200E+01  0.000E+00  1.249E+00
   1   10    7     6     2    1.1059E+01  0.0000E+00   1.1059E+01  0.000E+00  0.000E+00  0.000E+00  1.03893E+03  7.485E-01  1.200E+01  0.000E+00  1.249E+00
   1   11    7     6     3    1.1059E+01  0.0000E+00   1.1059E+01  0.000E+00  0.000E+00  0.000E+00  1.03438E+03  7.485E-01  1.200E+01  0.000E+00  1.249E+00
   1   12    7     6     4    1.1059E+01  0.0000E+00   1.1059E+01  0.000E+00  0.000E+00  0.000E+00  1.02984E+03  7.485E-01  1.200E+01  0.000E+00  1.249E+00
   1   13    7     6     5    1.1059E+01  0.0000E+00   1.1059E+01  0.000E+00  0.000E+00  0.000E+00  1.02666E+03  7.485E-01  1.200E+01  0.000E+00  7.091E-03
   1   14    9     7     1    1.5000E+02  1.2897E+00   1.4871E+02  0.000E+00  0.000E+00  0.000E+00  1.03987E+03  2.288E+00  5.530E+01  5.593E-01  7.686E-01
   1   13    8     7     2    1.4871E+02  1.9128E+00   1.4680E+02  0.000E+00  0.000E+00  0.000E+00  1.03478E+03  2.279E+00  5.526E+01  6.148E-01  1.037E+00
   1   13    7     7     3    1.4680E+02  1.7047E+00   1.4509E+02  0.000E+00  0.000E+00  0.000E+00  1.02969E+03  2.270E+00  5.521E+01  5.584E-01  1.018E+00
   1   13    6     8     1    1.5615E+02  1.0699E+00   1.5508E+02  0.000E+00  0.000E+00  0.000E+00  1.02473E+03  2.856E+00  4.141E+01  4.220E-01  8.451E-01
   1   13    5     8     2    1.5508E+02  3.0282E-01   1.5478E+02  0.000E+00  0.000E+00  0.000E+00  1.01848E+03  2.851E+00  4.134E+01  4.213E-01  2.396E-01
   1   13    4     8     3    1.5478E+02 -2.1765E+00   1.5696E+02  0.000E+00  0.000E+00  0.000E+00  1.01223E+03  2.858E+00  4.144E+01  4.222E+00 -1.718E-01
   1   13    3     8     4    1.5696E+02 -3.6588E+00   1.6061E+02  0.000E+00  0.000E+00  0.000E+00  1.00600E+03  2.878E+00  4.173E+01  4.252E+00 -2.868E-01
   1   13    2     8     5    1.6061E+02 -2.6446E+00   1.6326E+02  0.000E+00  0.000E+00  0.000E+00  9.99774E+02  2.899E+00  4.203E+01  4.283E+00 -2.058E-01
   1   13    1     8     6    1.6326E+02 -1.9779E+00   1.6524E+02  0.000E+00  0.000E+00  0.000E+00  9.94789E+02  2.914E+00  4.226E+01  2.584E+00 -2.552E-01
   1    6    8     9     1    0.0000E+00  0.0000E+00   0.0000E+00  0.000E+00  0.000E+00  0.000E+00  1.07850E+03  0.000E+00  4.000E+00  0.000E+00  1.000E+00





UNSATURATED ZONE PACKAGE VOLUMETRIC BUDGET FOR  TIME STEP    30 STRESS PERIOD   24
  ------------------------------------------------------------------------------



     CUMULATIVE VOLUMES      L**3       RATES FOR THIS TIME STEP      L**3/T
     ------------------                 ------------------------

           IN:                                      IN:
           ---                                      ---
        INFILTRATION =    95459681.6921          INFILTRATION =           0.8475

          OUT:                                     OUT:
          ----                                     ----
              UZF ET =   620699054.2000                UZF ET =           0.2900
        UZF RECHARGE =  1422363820.8959          UZF RECHARGE =          19.3866

            IN - OUT = -1947603193.4038              IN - OUT =         -18.8291

          STORAGE:                                 STORAGE:
          --------                                 --------
      STORAGE CHANGE = -1947593462.6489        STORAGE CHANGE =         -18.8291

 PERCENT DISCREPANCY IS DIFFERENCE BETWEEN IN-OUT MINUS CHANGE IN STORAGE
 DIVIDED BY THE AVERAGE OF IN AND OUT TIMES 100

 PERCENT DISCREPANCY =          -0.00     PERCENT DISCREPANCY =           0.00






1
  VOLUMETRIC BUDGET FOR ENTIRE MODEL AT END OF TIME STEP   30, STRESS PERIOD  24
  ------------------------------------------------------------------------------

     CUMULATIVE VOLUMES      L**3       RATES FOR THIS TIME STEP      L**3/T
     ------------------                 ------------------------

           IN:                                      IN:
           ---                                      ---
             STORAGE =    68467176.0000               STORAGE =           0.1490
       CONSTANT HEAD =           0.0000         CONSTANT HEAD =           0.0000
               WELLS =           0.0000                 WELLS =           0.0000
     HEAD DEP BOUNDS =    17860628.0000       HEAD DEP BOUNDS =           0.2826
      STREAM LEAKAGE =   623395200.0000        STREAM LEAKAGE =           8.7214
        UZF RECHARGE =  1422362240.0000          UZF RECHARGE =          19.3866
               GW ET =           0.0000                 GW ET =           0.0000
     SURFACE LEAKAGE =           0.0000       SURFACE LEAKAGE =           0.0000

            TOTAL IN =  2132085248.0000              TOTAL IN =          28.5396

          OUT:                                     OUT:
          ----                                     ----
             STORAGE =  1432597376.0000               STORAGE =          17.7924
       CONSTANT HEAD =           0.0000         CONSTANT HEAD =           0.0000
               WELLS =     1235968.6250                 WELLS =           0.0000
     HEAD DEP BOUNDS =    18021252.0000       HEAD DEP BOUNDS =           0.2871
      STREAM LEAKAGE =   527250528.0000        STREAM LEAKAGE =          10.4577
        UZF RECHARGE =           0.0000          UZF RECHARGE =           0.0000
               GW ET =   152835040.0000                 GW ET =       1.8153E-10
     SURFACE LEAKAGE =           0.0000       SURFACE LEAKAGE =           0.0000

           TOTAL OUT =  2131940224.0000             TOTAL OUT =          28.5372

            IN - OUT =      145024.0000              IN - OUT =       2.4643E-03

 PERCENT DISCREPANCY =           0.01     PERCENT DISCREPANCY =           0.01






         TIME SUMMARY AT END OF TIME STEP   30 IN STRESS PERIOD   24
                    SECONDS     MINUTES      HOURS       DAYS        YEARS
                    -----------------------------------------------------------
   TIME STEP LENGTH  87600.      1460.0      24.333      1.0139     2.77588E-03
 STRESS PERIOD TIME 2.62800E+06  43800.      730.00      30.417     8.32763E-02
         TOTAL TIME 6.30720E+07 1.05120E+06  17520.      730.00      1.9986    
1
1
                            STRESS PERIOD NO.   25, LENGTH =   2628000.    
                            -----------------------------------------------

                              NUMBER OF TIME STEPS =    30

                               MULTIPLIER FOR DELT =     1.000

                            INITIAL TIME STEP SIZE =   87600.00    

 WELL NO.  LAYER   ROW   COL   STRESS RATE         
 --------------------------------------------------
      1      1      6      4       0.000    
      2      1      6      7       0.000    
      3      1      7      4       0.000    
      4      1      7      5       0.000    
      5      1      8      4       0.000    
      6      1      8      5       0.000    
      7      1      9      4       0.000    
      8      1      9      5       0.000    
      9      1     10      4       0.000    
     10      1     10      5       0.000    

     10 WELLS

 REUSING NON-PARAMETER GHB CELLS FROM LAST STRESS PERIOD

      2 GHB CELLS

 REUSING STREAM SEGMENT DATA FROM LAST STRESS PERIOD



            AREAL INFILTRATION RATE
 READING ON UNIT   19 WITH FORMAT: (10F4.0)            

            1           2           3           4           5           6           7           8           9          10
 ........................................................................................................................
   1   1.0000E-10  2.0000E-10   0.000       0.000       0.000       0.000       0.000       0.000       0.000       0.000    
   2   2.0000E-10  1.0000E-10  2.0000E-10   0.000       0.000      8.0000E-10  8.0000E-10  5.0000E-10   0.000       0.000    
   3    0.000      5.0000E-10  1.0000E-10  1.0000E-10  8.0000E-10  8.0000E-10  5.0000E-10  5.0000E-10   0.000       0.000    
   4   8.0000E-10  5.0000E-10  1.0000E-10  1.0000E-10  1.0000E-10  1.0000E-10  1.0000E-10  1.0000E-10  2.0000E-10   0.000    
   5   8.0000E-10  5.0000E-10  1.0000E-10  1.0000E-10  1.0000E-10  1.0000E-10  1.0000E-10  1.0000E-10  1.0000E-10  1.0000E-10
   6   8.0000E-10  5.0000E-10  5.0000E-10  2.0000E-10  2.0000E-10  1.0000E-10  1.0000E-10  1.0000E-10  1.0000E-10  5.0000E-10
   7   8.0000E-10  5.0000E-10  5.0000E-10  2.0000E-10  2.0000E-10  1.0000E-10  1.0000E-10  2.0000E-10  2.0000E-10   0.000    
   8    0.000      5.0000E-10  5.0000E-10  2.0000E-10  2.0000E-10  1.0000E-10  1.0000E-10  2.0000E-10  5.0000E-10   0.000    
   9    0.000      5.0000E-10  5.0000E-10  2.0000E-10  2.0000E-10  1.0000E-10  1.0000E-10  2.0000E-10  5.0000E-10   0.000    
  10    0.000      5.0000E-10  5.0000E-10  2.0000E-10  2.0000E-10  1.0000E-10  1.0000E-10  2.0000E-10  5.0000E-10  8.0000E-10
  11    0.000      1.0000E-10  1.0000E-10  1.0000E-10  1.0000E-10  1.0000E-10  1.0000E-10  2.0000E-10  5.0000E-10   0.000    
  12   1.0000E-10  1.0000E-10  1.0000E-10  1.0000E-10  1.0000E-10  1.0000E-10  1.0000E-10  1.0000E-10  2.0000E-10   0.000    
  13   1.0000E-10  1.0000E-10  2.0000E-10  2.0000E-10  2.0000E-10  2.0000E-10  2.0000E-10  1.0000E-10  1.0000E-10   0.000    
  14    0.000      2.0000E-10  5.0000E-10  5.0000E-10  5.0000E-10  5.0000E-10  5.0000E-10  2.0000E-10  1.0000E-10   0.000    
  15    0.000       0.000      8.0000E-10  8.0000E-10  8.0000E-10  8.0000E-10   0.000       0.000       0.000       0.000    

                  ET RATE =  1.000000E-10

 USING ET EXTINCTION DEPTH FROM PREVIOUS STRESS PERIOD. CURRENT PERIOD IS:      25

 USING EXTINCTION WATER CONTENT FROM PREVIOUS STRESS PERIOD. CURRENT PERIOD IS:      25
 
 SOLVING FOR HEAD 
                                                   Max.-Head-Change                         Max.-Flux-Residual
  Residual-Control   Outer-Iter.   Inner-Iter.     Column Row Layer    Maximum-Head-Change  Column Row Layer    Maximum-Flux-Residual          L2-NORM 
          0                 1           2             8    2     1       0.4834438547E-02      10    5    1         0.2478875048E+00      0.1356469279E+01
          0                 2           2             8    2     1       0.2172735365E-02       8    2    1         0.5642887878E-01      0.3178155736E+00
          0                 3           2             8    2     1       0.9764888185E-03       8    2    1         0.2536075464E-01      0.1130929661E+00
          0                 4           2             8    2     1       0.4388613780E-03       8    2    1         0.1139784014E-01      0.4842207458E-01
          0                 5           2             8    2     1       0.1972364100E-03       8    2    1         0.5122507338E-02      0.2152127741E-01
          0                 6           1             8    2     1       0.8864340856E-04       8    2    1         0.2302195773E-02      0.9622572386E-02
          0                 7           1             8    2     1       0.3983872494E-04       8    2    1         0.1034669259E-02      0.4306752080E-02
          0                 8           1             8    2     1       0.1790457595E-04       8    2    1         0.4650080468E-03      0.1928022735E-02
          0                 9           1             8    2     1       0.8046782579E-05       8    2    1         0.2089868715E-03      0.8632249393E-03

    ------------------------------------------------
       NWT REQUIRED            9 OUTER ITERATIONS 
       AND A TOTAL OF         14 INNER ITERATIONS.
    ------------------------------------------------

 NO OUTPUT CONTROL FOR STRESS PERIOD   25   TIME STEP    1
 
 SOLVING FOR HEAD 
                                                   Max.-Head-Change                         Max.-Flux-Residual
  Residual-Control   Outer-Iter.   Inner-Iter.     Column Row Layer    Maximum-Head-Change  Column Row Layer    Maximum-Flux-Residual          L2-NORM 
          0                 1           2             8    2     1       0.4832059238E-02      10    5    1         0.2478602741E+00      0.1354114510E+01
          0                 2           2             8    2     1       0.2171665642E-02       8    2    1         0.5640110499E-01      0.3175209255E+00
          0                 3           2             8    2     1       0.9760078777E-03       8    2    1         0.2534826772E-01      0.1130149251E+00
          0                 4           2             8    2     1       0.4386451495E-03       8    2    1         0.1139222609E-01      0.4839003958E-01
          0                 5           2             8    2     1       0.1971391946E-03       8    2    1         0.5119983292E-02      0.2150707939E-01
          0                 6           1             8    2     1       0.8859970140E-04       8    2    1         0.2301060979E-02      0.9616205713E-02
          0                 7           1             8    2     1       0.3981907447E-04       8    2    1         0.1034159058E-02      0.4303890992E-02
          0                 8           1             8    2     1       0.1789574078E-04       8    2    1         0.4647786569E-03      0.1926736193E-02
          0                 9           1             8    2     1       0.8042810566E-05       8    2    1         0.2088837411E-03      0.8626458923E-03

    ------------------------------------------------
       NWT REQUIRED            9 OUTER ITERATIONS 
       AND A TOTAL OF         14 INNER ITERATIONS.
    ------------------------------------------------

 NO OUTPUT CONTROL FOR STRESS PERIOD   25   TIME STEP    2
 
 SOLVING FOR HEAD 
                                                   Max.-Head-Change                         Max.-Flux-Residual
  Residual-Control   Outer-Iter.   Inner-Iter.     Column Row Layer    Maximum-Head-Change  Column Row Layer    Maximum-Flux-Residual          L2-NORM 
          0                 1           2             8    2     1       0.4829684234E-02      10    5    1         0.2478353975E+00      0.1352318684E+01
          0                 2           2             8    2     1       0.2170597854E-02       8    2    1         0.5637338145E-01      0.3172895630E+00
          0                 3           2             8    2     1       0.9755278055E-03       8    2    1         0.2533580336E-01      0.1129445242E+00
          0                 4           2             8    2     1       0.4384293114E-03       8    2    1         0.1138662218E-01      0.4835981229E-01
          0                 5           2             8    2     1       0.1970421550E-03       8    2    1         0.5117463801E-02      0.2149342720E-01
          0                 6           1             8    2     1       0.8855607253E-04       8    2    1         0.2299928224E-02      0.9610002009E-02
          0                 7           1             8    2     1       0.3979945926E-04       8    2    1         0.1033649776E-02      0.4301073638E-02
          0                 8           1             8    2     1       0.1788692212E-04       8    2    1         0.4645496843E-03      0.1925459209E-02
          0                 9           1             8    2     1       0.8038845055E-05       8    2    1         0.2087807902E-03      0.8620680578E-03

    ------------------------------------------------
       NWT REQUIRED            9 OUTER ITERATIONS 
       AND A TOTAL OF         14 INNER ITERATIONS.
    ------------------------------------------------

 NO OUTPUT CONTROL FOR STRESS PERIOD   25   TIME STEP    3
 
 SOLVING FOR HEAD 
                                                   Max.-Head-Change                         Max.-Flux-Residual
  Residual-Control   Outer-Iter.   Inner-Iter.     Column Row Layer    Maximum-Head-Change  Column Row Layer    Maximum-Flux-Residual          L2-NORM 
          0                 1           2             8    2     1       0.4827313639E-02      10    5    1         0.2478077090E+00      0.1350568368E+01
          0                 2           2             8    2     1       0.2169532110E-02       8    2    1         0.5634570968E-01      0.3170746101E+00
          0                 3           2             8    2     1       0.9750486806E-03       8    2    1         0.2532336301E-01      0.1128770309E+00
          0                 4           2             8    2     1       0.4382139118E-03       8    2    1         0.1138102939E-01      0.4833024397E-01
          0                 5           2             8    2     1       0.1969453175E-03       8    2    1         0.5114949455E-02      0.2148005580E-01
          0                 6           1             8    2     1       0.8851253745E-04       8    2    1         0.2298797854E-02      0.9603942778E-02
          0                 7           1             8    2     1       0.3977988732E-04       8    2    1         0.1033141598E-02      0.4298329828E-02
          0                 8           1             8    2     1       0.1787812321E-04       8    2    1         0.4643212216E-03      0.1924217277E-02
          0                 9           1             8    2     1       0.8034889299E-05       8    2    1         0.2086780784E-03      0.8615063901E-03

    ------------------------------------------------
       NWT REQUIRED            9 OUTER ITERATIONS 
       AND A TOTAL OF         14 INNER ITERATIONS.
    ------------------------------------------------

 NO OUTPUT CONTROL FOR STRESS PERIOD   25   TIME STEP    4
 
 SOLVING FOR HEAD 
                                                   Max.-Head-Change                         Max.-Flux-Residual
  Residual-Control   Outer-Iter.   Inner-Iter.     Column Row Layer    Maximum-Head-Change  Column Row Layer    Maximum-Flux-Residual          L2-NORM 
          0                 1           2             8    2     1       0.4824947443E-02      10    5    1         0.2477824003E+00      0.1348849791E+01
          0                 2           2             8    2     1       0.2168468280E-02       8    2    1         0.5631808894E-01      0.3168320388E+00
          0                 3           2             8    2     1       0.9745703880E-03       8    2    1         0.2531094487E-01      0.1127971532E+00
          0                 4           2             8    2     1       0.4379988735E-03       8    2    1         0.1137544625E-01      0.4829595055E-01
          0                 5           2             8    2     1       0.1968486378E-03       8    2    1         0.5112439305E-02      0.2146487334E-01
          0                 6           1             8    2     1       0.8846907040E-04       8    2    1         0.2297669296E-02      0.9597182029E-02
          0                 7           1             8    2     1       0.3976034439E-04       8    2    1         0.1032634203E-02      0.4295312253E-02
          0                 8           1             8    2     1       0.1786933681E-04       8    2    1         0.4640931028E-03      0.1922868354E-02
          0                 9           1             8    2     1       0.8030939045E-05       8    2    1         0.2085755202E-03      0.8609025198E-03

    ------------------------------------------------
       NWT REQUIRED            9 OUTER ITERATIONS 
       AND A TOTAL OF         14 INNER ITERATIONS.
    ------------------------------------------------

 NO OUTPUT CONTROL FOR STRESS PERIOD   25   TIME STEP    5
 
 SOLVING FOR HEAD 
                                                   Max.-Head-Change                         Max.-Flux-Residual
  Residual-Control   Outer-Iter.   Inner-Iter.     Column Row Layer    Maximum-Head-Change  Column Row Layer    Maximum-Flux-Residual          L2-NORM 
          0                 1           2             8    2     1       0.4822480819E-02      10    5    1         0.2477542102E+00      0.1347329556E+01
          0                 2           2             8    2     1       0.2167359425E-02       8    2    1         0.5628929651E-01      0.3166346868E+00
          0                 3           2             8    2     1       0.9740719092E-03       8    2    1         0.2529800141E-01      0.1127295791E+00
          0                 4           2             8    2     1       0.4377747853E-03       8    2    1         0.1136962760E-01      0.4826596698E-01
          0                 5           2             8    2     1       0.1967478996E-03       8    2    1         0.5109823560E-02      0.2145134397E-01
          0                 6           1             8    2     1       0.8842378455E-04       8    2    1         0.2296493411E-02      0.9591069038E-02
          0                 7           1             8    2     1       0.3973998660E-04       8    2    1         0.1032105589E-02      0.4292550066E-02
          0                 8           1             8    2     1       0.1786018475E-04       8    2    1         0.4638554643E-03      0.1921621077E-02
          0                 9           1             8    2     1       0.8026824968E-05       8    2    1         0.2084686916E-03      0.8603392760E-03

    ------------------------------------------------
       NWT REQUIRED            9 OUTER ITERATIONS 
       AND A TOTAL OF         14 INNER ITERATIONS.
    ------------------------------------------------

 NO OUTPUT CONTROL FOR STRESS PERIOD   25   TIME STEP    6
 
 SOLVING FOR HEAD 
                                                   Max.-Head-Change                         Max.-Flux-Residual
  Residual-Control   Outer-Iter.   Inner-Iter.     Column Row Layer    Maximum-Head-Change  Column Row Layer    Maximum-Flux-Residual          L2-NORM 
          0                 1           2             8    2     1       0.4820123781E-02      10    5    1         0.2477257875E+00      0.1345797086E+01
          0                 2           2             8    2     1       0.2166299711E-02       8    2    1         0.5626178266E-01      0.3164258698E+00
          0                 3           2             8    2     1       0.9735954666E-03       8    2    1         0.2528563131E-01      0.1126605323E+00
          0                 4           2             8    2     1       0.4375605787E-03       8    2    1         0.1136406606E-01      0.4823581514E-01
          0                 5           2             8    2     1       0.1966515936E-03       8    2    1         0.5107323120E-02      0.2143777533E-01
          0                 6           1             8    2     1       0.8838048532E-04       8    2    1         0.2295369218E-02      0.9584939294E-02
          0                 7           1             8    2     1       0.3972051946E-04       8    2    1         0.1031600158E-02      0.4289779530E-02
          0                 8           1             8    2     1       0.1785143236E-04       8    2    1         0.4636282241E-03      0.1920368557E-02
          0                 9           1             8    2     1       0.8022889971E-05       8    2    1         0.2083665241E-03      0.8597733090E-03

    ------------------------------------------------
       NWT REQUIRED            9 OUTER ITERATIONS 
       AND A TOTAL OF         14 INNER ITERATIONS.
    ------------------------------------------------

 NO OUTPUT CONTROL FOR STRESS PERIOD   25   TIME STEP    7
 
 SOLVING FOR HEAD 
                                                   Max.-Head-Change                         Max.-Flux-Residual
  Residual-Control   Outer-Iter.   Inner-Iter.     Column Row Layer    Maximum-Head-Change  Column Row Layer    Maximum-Flux-Residual          L2-NORM 
          0                 1           2             8    2     1       0.4817770886E-02      10    5    1         0.2476996716E+00      0.1344378432E+01
          0                 2           2             8    2     1       0.2165241797E-02       8    2    1         0.5623431689E-01      0.3162345941E+00
          0                 3           2             8    2     1       0.9731198044E-03       8    2    1         0.2527328208E-01      0.1125940369E+00
          0                 4           2             8    2     1       0.4373467100E-03       8    2    1         0.1135851356E-01      0.4820621785E-01
          0                 5           2             8    2     1       0.1965554332E-03       8    2    1         0.5104826588E-02      0.2142440384E-01
          0                 6           1             8    2     1       0.8833724938E-04       8    2    1         0.2294246720E-02      0.9578892821E-02
          0                 7           1             8    2     1       0.3970107958E-04       8    2    1         0.1031095456E-02      0.4287045523E-02
          0                 8           1             8    2     1       0.1784269173E-04       8    2    1         0.4634012947E-03      0.1919132628E-02
          0                 9           1             8    2     1       0.8018959726E-05       8    2    1         0.2082644895E-03      0.8592148921E-03

    ------------------------------------------------
       NWT REQUIRED            9 OUTER ITERATIONS 
       AND A TOTAL OF         14 INNER ITERATIONS.
    ------------------------------------------------

 NO OUTPUT CONTROL FOR STRESS PERIOD   25   TIME STEP    8
 
 SOLVING FOR HEAD 
                                                   Max.-Head-Change                         Max.-Flux-Residual
  Residual-Control   Outer-Iter.   Inner-Iter.     Column Row Layer    Maximum-Head-Change  Column Row Layer    Maximum-Flux-Residual          L2-NORM 
          0                 1           2             8    2     1       0.4815317188E-02      10    5    1         0.2476707007E+00      0.1343128013E+01
          0                 2           2             8    2     1       0.2164138643E-02       8    2    1         0.5620567481E-01      0.3160667050E+00
          0                 3           2             8    2     1       0.9726238387E-03       8    2    1         0.2526040493E-01      0.1125310410E+00
          0                 4           2             8    2     1       0.4371237297E-03       8    2    1         0.1135272414E-01      0.4817697727E-01
          0                 5           2             8    2     1       0.1964551837E-03       8    2    1         0.5102223728E-02      0.2141092224E-01
          0                 6           1             8    2     1       0.8829217812E-04       8    2    1         0.2293076501E-02      0.9572732098E-02
          0                 7           1             8    2     1       0.3968081583E-04       8    2    1         0.1030569337E-02      0.4284244416E-02
          0                 8           1             8    2     1       0.1783358143E-04       8    2    1         0.4631647589E-03      0.1917862735E-02
          0                 9           1             8    2     1       0.8014863908E-05       8    2    1         0.2081581438E-03      0.8586404021E-03

    ------------------------------------------------
       NWT REQUIRED            9 OUTER ITERATIONS 
       AND A TOTAL OF         14 INNER ITERATIONS.
    ------------------------------------------------

 NO OUTPUT CONTROL FOR STRESS PERIOD   25   TIME STEP    9
 
 SOLVING FOR HEAD 
                                                   Max.-Head-Change                         Max.-Flux-Residual
  Residual-Control   Outer-Iter.   Inner-Iter.     Column Row Layer    Maximum-Head-Change  Column Row Layer    Maximum-Flux-Residual          L2-NORM 
          0                 1           2             8    2     1       0.4812972887E-02      10    5    1         0.2476414348E+00      0.1341747311E+01
          0                 2           2             8    2     1       0.2163084652E-02       8    2    1         0.5617830964E-01      0.3158672452E+00
          0                 3           2             8    2     1       0.9721499669E-03       8    2    1         0.2524810164E-01      0.1124620297E+00
          0                 4           2             8    2     1       0.4369106769E-03       8    2    1         0.1134719260E-01      0.4814650164E-01
          0                 5           2             8    2     1       0.1963593949E-03       8    2    1         0.5099736751E-02      0.2139716554E-01
          0                 6           1             8    2     1       0.8824911150E-04       8    2    1         0.2291958352E-02      0.9566507708E-02
          0                 7           1             8    2     1       0.3966145249E-04       8    2    1         0.1030066609E-02      0.4281427428E-02
          0                 8           1             8    2     1       0.1782487557E-04       8    2    1         0.4629387313E-03      0.1916588012E-02
          0                 9           1             8    2     1       0.8010949420E-05       8    2    1         0.2080565215E-03      0.8580634964E-03

    ------------------------------------------------
       NWT REQUIRED            9 OUTER ITERATIONS 
       AND A TOTAL OF         14 INNER ITERATIONS.
    ------------------------------------------------

 NO OUTPUT CONTROL FOR STRESS PERIOD   25   TIME STEP   10
 
 SOLVING FOR HEAD 
                                                   Max.-Head-Change                         Max.-Flux-Residual
  Residual-Control   Outer-Iter.   Inner-Iter.     Column Row Layer    Maximum-Head-Change  Column Row Layer    Maximum-Flux-Residual          L2-NORM 
          0                 1           2             8    2     1       0.4810528041E-02      10    5    1         0.2476145085E+00      0.1340402456E+01
          0                 2           2             8    2     1       0.2161985579E-02       8    2    1         0.5614977138E-01      0.3156706936E+00
          0                 3           2             8    2     1       0.9716558800E-03       8    2    1         0.2523527233E-01      0.1123929621E+00
          0                 4           2             8    2     1       0.4366885600E-03       8    2    1         0.1134142521E-01      0.4811602406E-01
          0                 5           2             8    2     1       0.1962595418E-03       8    2    1         0.5097144015E-02      0.2138345312E-01
          0                 6           1             8    2     1       0.8820422207E-04       8    2    1         0.2290792783E-02      0.9560317631E-02
          0                 7           1             8    2     1       0.3964127253E-04       8    2    1         0.1029542625E-02      0.4278629698E-02
          0                 8           1             8    2     1       0.1781580354E-04       8    2    1         0.4627031697E-03      0.1915324118E-02
          0                 9           1             8    2     1       0.8006870859E-05       8    2    1         0.2079506198E-03      0.8574949819E-03

    ------------------------------------------------
       NWT REQUIRED            9 OUTER ITERATIONS 
       AND A TOTAL OF         14 INNER ITERATIONS.
    ------------------------------------------------

 NO OUTPUT CONTROL FOR STRESS PERIOD   25   TIME STEP   11
 
 SOLVING FOR HEAD 
                                                   Max.-Head-Change                         Max.-Flux-Residual
  Residual-Control   Outer-Iter.   Inner-Iter.     Column Row Layer    Maximum-Head-Change  Column Row Layer    Maximum-Flux-Residual          L2-NORM 
          0                 1           2             8    2     1       0.4808192762E-02      10    5    1         0.2475846634E+00      0.1339133351E+01
          0                 2           2             8    2     1       0.2160935634E-02       8    2    1         0.5612251148E-01      0.3154644823E+00
          0                 3           2             8    2     1       0.9711838214E-03       8    2    1         0.2522301623E-01      0.1123118868E+00
          0                 4           2             8    2     1       0.4364763203E-03       8    2    1         0.1133591482E-01      0.4807934348E-01
          0                 5           2             8    2     1       0.1961641177E-03       8    2    1         0.5094666518E-02      0.2136685084E-01
          0                 6           1             8    2     1       0.8816131827E-04       8    2    1         0.2289678878E-02      0.9552808224E-02
          0                 7           1             8    2     1       0.3962198246E-04       8    2    1         0.1029041803E-02      0.4275233581E-02
          0                 8           1             8    2     1       0.1780712994E-04       8    2    1         0.4624779918E-03      0.1913787220E-02
          0                 9           1             8    2     1       0.8002971628E-05       8    2    1         0.2078493828E-03      0.8567971940E-03

    ------------------------------------------------
       NWT REQUIRED            9 OUTER ITERATIONS 
       AND A TOTAL OF         14 INNER ITERATIONS.
    ------------------------------------------------

 NO OUTPUT CONTROL FOR STRESS PERIOD   25   TIME STEP   12
 
 SOLVING FOR HEAD 
                                                   Max.-Head-Change                         Max.-Flux-Residual
  Residual-Control   Outer-Iter.   Inner-Iter.     Column Row Layer    Maximum-Head-Change  Column Row Layer    Maximum-Flux-Residual          L2-NORM 
          0                 1           2             8    2     1       0.4805861648E-02      10    5    1         0.2475545546E+00      0.1337957165E+01
          0                 2           2             8    2     1       0.2159887558E-02       8    2    1         0.5609530019E-01      0.3152614550E+00
          0                 3           2             8    2     1       0.9707126024E-03       8    2    1         0.2521078195E-01      0.1122301176E+00
          0                 4           2             8    2     1       0.4362644580E-03       8    2    1         0.1133041424E-01      0.4804222851E-01
          0                 5           2             8    2     1       0.1960688629E-03       8    2    1         0.5092193430E-02      0.2135005448E-01
          0                 6           1             8    2     1       0.8811849100E-04       8    2    1         0.2288566964E-02      0.9545223676E-02
          0                 7           1             8    2     1       0.3960272666E-04       8    2    1         0.1028541877E-02      0.4271812588E-02
          0                 8           1             8    2     1       0.1779847285E-04       8    2    1         0.4622532247E-03      0.1912245504E-02
          0                 9           1             8    2     1       0.7999079150E-05       8    2    1         0.2077483239E-03      0.8561027298E-03

    ------------------------------------------------
       NWT REQUIRED            9 OUTER ITERATIONS 
       AND A TOTAL OF         14 INNER ITERATIONS.
    ------------------------------------------------

 NO OUTPUT CONTROL FOR STRESS PERIOD   25   TIME STEP   13
 
 SOLVING FOR HEAD 
                                                   Max.-Head-Change                         Max.-Flux-Residual
  Residual-Control   Outer-Iter.   Inner-Iter.     Column Row Layer    Maximum-Head-Change  Column Row Layer    Maximum-Flux-Residual          L2-NORM 
          0                 1           2             8    2     1       0.4803429569E-02      10    5    1         0.2475267264E+00      0.1336690030E+01
          0                 2           2             8    2     1       0.2158794038E-02       8    2    1         0.5606691007E-01      0.3150357923E+00
          0                 3           2             8    2     1       0.9702209292E-03       8    2    1         0.2519801708E-01      0.1121563196E+00
          0                 4           2             8    2     1       0.4360433888E-03       8    2    1         0.1132467484E-01      0.4801124988E-01
          0                 5           2             8    2     1       0.1959694643E-03       8    2    1         0.5089612844E-02      0.2133619027E-01
          0                 6           1             8    2     1       0.8807379816E-04       8    2    1         0.2287406657E-02      0.9538942571E-02
          0                 7           1             8    2     1       0.3958263174E-04       8    2    1         0.1028020171E-02      0.4268969886E-02
          0                 8           1             8    2     1       0.1778943734E-04       8    2    1         0.4620186487E-03      0.1910970484E-02
          0                 9           1             8    2     1       0.7995016346E-05       8    2    1         0.2076428490E-03      0.8555180706E-03

    ------------------------------------------------
       NWT REQUIRED            9 OUTER ITERATIONS 
       AND A TOTAL OF         14 INNER ITERATIONS.
    ------------------------------------------------

 NO OUTPUT CONTROL FOR STRESS PERIOD   25   TIME STEP   14
 
 SOLVING FOR HEAD 
                                                   Max.-Head-Change                         Max.-Flux-Residual
  Residual-Control   Outer-Iter.   Inner-Iter.     Column Row Layer    Maximum-Head-Change  Column Row Layer    Maximum-Flux-Residual          L2-NORM 
          0                 1           2             8    2     1       0.4801001905E-02      10    5    1         0.2474960186E+00      0.1334578584E+01
          0                 2           2             8    2     1       0.2157702674E-02       8    2    1         0.5603857231E-01      0.3147374738E+00
          0                 3           2             8    2     1       0.9697303011E-03       8    2    1         0.2518527774E-01      0.1120825643E+00
          0                 4           2             8    2     1       0.4358228244E-03       8    2    1         0.1131894781E-01      0.4798172826E-01
          0                 5           2             8    2     1       0.1958703072E-03       8    2    1         0.5087038215E-02      0.2132295867E-01
          0                 6           1             8    2     1       0.8802922187E-04       8    2    1         0.2286249217E-02      0.9532924166E-02
          0                 7           1             8    2     1       0.3956259160E-04       8    2    1         0.1027499828E-02      0.4266225043E-02
          0                 8           1             8    2     1       0.1778042809E-04       8    2    1         0.4617847198E-03      0.1909709553E-02
          0                 9           1             8    2     1       0.7990966048E-05       8    2    1         0.2075376804E-03      0.8549765221E-03

    ------------------------------------------------
       NWT REQUIRED            9 OUTER ITERATIONS 
       AND A TOTAL OF         14 INNER ITERATIONS.
    ------------------------------------------------

 NO OUTPUT CONTROL FOR STRESS PERIOD   25   TIME STEP   15
 
 SOLVING FOR HEAD 
                                                   Max.-Head-Change                         Max.-Flux-Residual
  Residual-Control   Outer-Iter.   Inner-Iter.     Column Row Layer    Maximum-Head-Change  Column Row Layer    Maximum-Flux-Residual          L2-NORM 
          0                 1           2             8    2     1       0.4798683770E-02      10    5    1         0.2474675876E+00      0.1333106910E+01
          0                 2           2             8    2     1       0.2156660421E-02       8    2    1         0.5601151245E-01      0.3144969431E+00
          0                 3           2             8    2     1       0.9692616940E-03       8    2    1         0.2517311139E-01      0.1120036538E+00
          0                 4           2             8    2     1       0.4356121331E-03       8    2    1         0.1131347769E-01      0.4794803179E-01
          0                 5           2             8    2     1       0.1957755779E-03       8    2    1         0.5084578791E-02      0.2130801050E-01
          0                 6           1             8    2     1       0.8798662996E-04       8    2    1         0.2285143426E-02      0.9526247467E-02
          0                 7           1             8    2     1       0.3954344134E-04       8    2    1         0.1027002648E-02      0.4263236020E-02
          0                 8           1             8    2     1       0.1777181801E-04       8    2    1         0.4615611839E-03      0.1908370848E-02
          0                 9           1             8    2     1       0.7987094829E-05       8    2    1         0.2074371762E-03      0.8543577416E-03

    ------------------------------------------------
       NWT REQUIRED            9 OUTER ITERATIONS 
       AND A TOTAL OF         14 INNER ITERATIONS.
    ------------------------------------------------

 NO OUTPUT CONTROL FOR STRESS PERIOD   25   TIME STEP   16
 
 SOLVING FOR HEAD 
                                                   Max.-Head-Change                         Max.-Flux-Residual
  Residual-Control   Outer-Iter.   Inner-Iter.     Column Row Layer    Maximum-Head-Change  Column Row Layer    Maximum-Flux-Residual          L2-NORM 
          0                 1           2             8    2     1       0.4796264568E-02      10    5    1         0.2474362205E+00      0.1331904749E+01
          0                 2           2             8    2     1       0.2155572679E-02       8    2    1         0.5598327260E-01      0.3143106692E+00
          0                 3           2             8    2     1       0.9687726131E-03       8    2    1         0.2516041395E-01      0.1119352681E+00
          0                 4           2             8    2     1       0.4353922272E-03       8    2    1         0.1130776855E-01      0.4791760668E-01
          0                 5           2             8    2     1       0.1956767018E-03       8    2    1         0.5082011785E-02      0.2129428738E-01
          0                 6           1             8    2     1       0.8794217122E-04       8    2    1         0.2283989210E-02      0.9520047057E-02
          0                 7           1             8    2     1       0.3952345172E-04       8    2    1         0.1026483678E-02      0.4260433537E-02
          0                 8           1             8    2     1       0.1776282952E-04       8    2    1         0.4613278315E-03      0.1907103064E-02
          0                 9           1             8    2     1       0.7983053285E-05       8    2    1         0.2073322545E-03      0.8537794399E-03

    ------------------------------------------------
       NWT REQUIRED            9 OUTER ITERATIONS 
       AND A TOTAL OF         14 INNER ITERATIONS.
    ------------------------------------------------

 NO OUTPUT CONTROL FOR STRESS PERIOD   25   TIME STEP   17
 
 SOLVING FOR HEAD 
                                                   Max.-Head-Change                         Max.-Flux-Residual
  Residual-Control   Outer-Iter.   Inner-Iter.     Column Row Layer    Maximum-Head-Change  Column Row Layer    Maximum-Flux-Residual          L2-NORM 
          0                 1           2             8    2     1       0.4793849719E-02      10    5    1         0.2474045845E+00      0.1330725949E+01
          0                 2           2             8    2     1       0.2154487064E-02       8    2    1         0.5595508437E-01      0.3140813966E+00
          0                 3           2             8    2     1       0.9682845657E-03       8    2    1         0.2514774170E-01      0.1118463163E+00
          0                 4           2             8    2     1       0.4351728206E-03       8    2    1         0.1130207162E-01      0.4788017393E-01
          0                 5           2             8    2     1       0.1955780645E-03       8    2    1         0.5079450667E-02      0.2127778016E-01
          0                 6           1             8    2     1       0.8789782779E-04       8    2    1         0.2282837831E-02      0.9512662672E-02
          0                 7           1             8    2     1       0.3950351612E-04       8    2    1         0.1025966056E-02      0.4257119627E-02
          0                 8           1             8    2     1       0.1775386729E-04       8    2    1         0.4610951280E-03      0.1905614913E-02
          0                 9           1             8    2     1       0.7979023996E-05       8    2    1         0.2072276367E-03      0.8531110497E-03

    ------------------------------------------------
       NWT REQUIRED            9 OUTER ITERATIONS 
       AND A TOTAL OF         14 INNER ITERATIONS.
    ------------------------------------------------

 NO OUTPUT CONTROL FOR STRESS PERIOD   25   TIME STEP   18
 
 SOLVING FOR HEAD 
                                                   Max.-Head-Change                         Max.-Flux-Residual
  Residual-Control   Outer-Iter.   Inner-Iter.     Column Row Layer    Maximum-Head-Change  Column Row Layer    Maximum-Flux-Residual          L2-NORM 
          0                 1           2             8    2     1       0.4791544058E-02      10    5    1         0.2473726301E+00      0.1327733851E+01
          0                 2           2             8    2     1       0.2153450237E-02       8    2    1         0.5592816926E-01      0.3135951362E+00
          0                 3           2             8    2     1       0.9678183160E-03       8    2    1         0.2513563830E-01      0.1117481605E+00
          0                 4           2             8    2     1       0.4349631530E-03       8    2    1         0.1129662886E-01      0.4784554442E-01
          0                 5           2             8    2     1       0.1954837786E-03       8    2    1         0.5077003116E-02      0.2126285302E-01
          0                 6           1             8    2     1       0.8785542846E-04       8    2    1         0.2281737195E-02      0.9505990898E-02
          0                 7           1             8    2     1       0.3948444965E-04       8    2    1         0.1025471110E-02      0.4254119857E-02
          0                 8           1             8    2     1       0.1774529324E-04       8    2    1         0.4608725526E-03      0.1904265134E-02
          0                 9           1             8    2     1       0.7975168034E-05       8    2    1         0.2071275430E-03      0.8525036370E-03

    ------------------------------------------------
       NWT REQUIRED            9 OUTER ITERATIONS 
       AND A TOTAL OF         14 INNER ITERATIONS.
    ------------------------------------------------

 NO OUTPUT CONTROL FOR STRESS PERIOD   25   TIME STEP   19
 
 SOLVING FOR HEAD 
                                                   Max.-Head-Change                         Max.-Flux-Residual
  Residual-Control   Outer-Iter.   Inner-Iter.     Column Row Layer    Maximum-Head-Change  Column Row Layer    Maximum-Flux-Residual          L2-NORM 
          0                 1           2             8    2     1       0.4789137247E-02      10    5    1         0.2473429927E+00      0.1326739243E+01
          0                 2           2             8    2     1       0.2152368230E-02       8    2    1         0.5590007483E-01      0.3134124508E+00
          0                 3           2             8    2     1       0.9673318867E-03       8    2    1         0.2512300814E-01      0.1116776627E+00
          0                 4           2             8    2     1       0.4347444719E-03       8    2    1         0.1129095082E-01      0.4781415748E-01
          0                 5           2             8    2     1       0.1953854677E-03       8    2    1         0.5074450475E-02      0.2124874555E-01
          0                 6           1             8    2     1       0.8781123084E-04       8    2    1         0.2280589610E-02      0.9499640273E-02
          0                 7           1             8    2     1       0.3946457983E-04       8    2    1         0.1024955193E-02      0.4251259973E-02
          0                 8           1             8    2     1       0.1773635977E-04       8    2    1         0.4606406082E-03      0.1902977218E-02
          0                 9           1             8    2     1       0.7971152251E-05       8    2    1         0.2070232731E-03      0.8519268365E-03

    ------------------------------------------------
       NWT REQUIRED            9 OUTER ITERATIONS 
       AND A TOTAL OF         14 INNER ITERATIONS.
    ------------------------------------------------

 NO OUTPUT CONTROL FOR STRESS PERIOD   25   TIME STEP   20
 
 SOLVING FOR HEAD 
                                                   Max.-Head-Change                         Max.-Flux-Residual
  Residual-Control   Outer-Iter.   Inner-Iter.     Column Row Layer    Maximum-Head-Change  Column Row Layer    Maximum-Flux-Residual          L2-NORM 
          0                 1           2             8    2     1       0.4786734731E-02      10    5    1         0.2473104046E+00      0.1325566435E+01
          0                 2           2             8    2     1       0.2151287976E-02       8    2    1         0.5587202967E-01      0.3132277723E+00
          0                 3           2             8    2     1       0.9668461671E-03       8    2    1         0.2511039808E-01      0.1116125593E+00
          0                 4           2             8    2     1       0.4345260749E-03       8    2    1         0.1128528089E-01      0.4778496122E-01
          0                 5           2             8    2     1       0.1952872681E-03       8    2    1         0.5071901071E-02      0.2123538568E-01
          0                 6           1             8    2     1       0.8776707673E-04       8    2    1         0.2279443308E-02      0.9493537224E-02
          0                 7           1             8    2     1       0.3944472602E-04       8    2    1         0.1024439769E-02      0.4248479265E-02
          0                 8           1             8    2     1       0.1772743331E-04       8    2    1         0.4604088576E-03      0.1901711906E-02
          0                 9           1             8    2     1       0.7967138219E-05       8    2    1         0.2069190638E-03      0.8513485499E-03

    ------------------------------------------------
       NWT REQUIRED            9 OUTER ITERATIONS 
       AND A TOTAL OF         14 INNER ITERATIONS.
    ------------------------------------------------

 NO OUTPUT CONTROL FOR STRESS PERIOD   25   TIME STEP   21
 
 SOLVING FOR HEAD 
                                                   Max.-Head-Change                         Max.-Flux-Residual
  Residual-Control   Outer-Iter.   Inner-Iter.     Column Row Layer    Maximum-Head-Change  Column Row Layer    Maximum-Flux-Residual          L2-NORM 
          0                 1           2             8    2     1       0.4784336495E-02      10    5    1         0.2472774836E+00      0.1324441121E+01
          0                 2           2             8    2     1       0.2150209818E-02       8    2    1         0.5584403531E-01      0.3129825508E+00
          0                 3           2             8    2     1       0.9663614651E-03       8    2    1         0.2509781284E-01      0.1115091844E+00
          0                 4           2             8    2     1       0.4343081697E-03       8    2    1         0.1127962301E-01      0.4773824500E-01
          0                 5           2             8    2     1       0.1951893049E-03       8    2    1         0.5069357477E-02      0.2121454468E-01
          0                 6           1             8    2     1       0.8772303543E-04       8    2    1         0.2278299787E-02      0.9484601725E-02
          0                 7           1             8    2     1       0.3942492648E-04       8    2    1         0.1023925676E-02      0.4244193619E-02
          0                 8           1             8    2     1       0.1771853160E-04       8    2    1         0.4601777342E-03      0.1899776706E-02
          0                 9           1             8    2     1       0.7963136192E-05       8    2    1         0.2068151584E-03      0.8504754988E-03

    ------------------------------------------------
       NWT REQUIRED            9 OUTER ITERATIONS 
       AND A TOTAL OF         14 INNER ITERATIONS.
    ------------------------------------------------

 NO OUTPUT CONTROL FOR STRESS PERIOD   25   TIME STEP   22
 
 SOLVING FOR HEAD 
                                                   Max.-Head-Change                         Max.-Flux-Residual
  Residual-Control   Outer-Iter.   Inner-Iter.     Column Row Layer    Maximum-Head-Change  Column Row Layer    Maximum-Flux-Residual          L2-NORM 
          0                 1           2             8    2     1       0.4781942517E-02      10    5    1         0.2472468681E+00      0.1323509937E+01
          0                 2           2             8    2     1       0.2149133398E-02       8    2    1         0.5581608981E-01      0.3127932912E+00
          0                 3           2             8    2     1       0.9658774670E-03       8    2    1         0.2508524752E-01      0.1114314830E+00
          0                 4           2             8    2     1       0.4340905458E-03       8    2    1         0.1127397317E-01      0.4770327369E-01
          0                 5           2             8    2     1       0.1950914529E-03       8    2    1         0.5066817098E-02      0.2119854866E-01
          0                 6           1             8    2     1       0.8767903690E-04       8    2    1         0.2277157533E-02      0.9476931296E-02
          0                 7           1             8    2     1       0.3940514319E-04       8    2    1         0.1023412080E-02      0.4240993630E-02
          0                 8           1             8    2     1       0.1770963641E-04       8    2    1         0.4599467995E-03      0.1898338092E-02
          0                 9           1             8    2     1       0.7959136166E-05       8    2    1         0.2067113165E-03      0.8498292982E-03

    ------------------------------------------------
       NWT REQUIRED            9 OUTER ITERATIONS 
       AND A TOTAL OF         14 INNER ITERATIONS.
    ------------------------------------------------

 NO OUTPUT CONTROL FOR STRESS PERIOD   25   TIME STEP   23
 
 SOLVING FOR HEAD 
                                                   Max.-Head-Change                         Max.-Flux-Residual
  Residual-Control   Outer-Iter.   Inner-Iter.     Column Row Layer    Maximum-Head-Change  Column Row Layer    Maximum-Flux-Residual          L2-NORM 
          0                 1           2             8    2     1       0.4779657703E-02      10    5    1         0.2472132915E+00      0.1322539627E+01
          0                 2           2             8    2     1       0.2148106101E-02       8    2    1         0.5578941880E-01      0.3126111676E+00
          0                 3           2             8    2     1       0.9654155727E-03       8    2    1         0.2507325570E-01      0.1113585659E+00
          0                 4           2             8    2     1       0.4338828679E-03       8    2    1         0.1126858140E-01      0.4767078519E-01
          0                 5           2             8    2     1       0.1949980760E-03       8    2    1         0.5064392836E-02      0.2118405879E-01
          0                 6           1             8    2     1       0.8763705276E-04       8    2    1         0.2276067525E-02      0.9470459422E-02
          0                 7           1             8    2     1       0.3938626531E-04       8    2    1         0.1022921975E-02      0.4238094388E-02
          0                 8           1             8    2     1       0.1770114839E-04       8    2    1         0.4597264370E-03      0.1897037034E-02
          0                 9           1             8    2     1       0.7955320222E-05       8    2    1         0.2066122367E-03      0.8492438705E-03

    ------------------------------------------------
       NWT REQUIRED            9 OUTER ITERATIONS 
       AND A TOTAL OF         14 INNER ITERATIONS.
    ------------------------------------------------

 NO OUTPUT CONTROL FOR STRESS PERIOD   25   TIME STEP   24
 
 SOLVING FOR HEAD 
                                                   Max.-Head-Change                         Max.-Flux-Residual
  Residual-Control   Outer-Iter.   Inner-Iter.     Column Row Layer    Maximum-Head-Change  Column Row Layer    Maximum-Flux-Residual          L2-NORM 
          0                 1           2             8    2     1       0.4777271586E-02      10    5    1         0.2471793742E+00      0.1321608049E+01
          0                 2           2             8    2     1       0.2147033210E-02       8    2    1         0.5576156504E-01      0.3124340760E+00
          0                 3           2             8    2     1       0.9649331585E-03       8    2    1         0.2506073156E-01      0.1112944554E+00
          0                 4           2             8    2     1       0.4336659546E-03       8    2    1         0.1126295005E-01      0.4764251258E-01
          0                 5           2             8    2     1       0.1949005427E-03       8    2    1         0.5061860751E-02      0.2117119533E-01
          0                 6           1             8    2     1       0.8759319754E-04       8    2    1         0.2274928995E-02      0.9464590703E-02
          0                 7           1             8    2     1       0.3936654631E-04       8    2    1         0.1022410044E-02      0.4235425785E-02
          0                 8           1             8    2     1       0.1769228170E-04       8    2    1         0.4594962477E-03      0.1895826583E-02
          0                 9           1             8    2     1       0.7951333452E-05       8    2    1         0.2065087323E-03      0.8486956775E-03

    ------------------------------------------------
       NWT REQUIRED            9 OUTER ITERATIONS 
       AND A TOTAL OF         14 INNER ITERATIONS.
    ------------------------------------------------

 NO OUTPUT CONTROL FOR STRESS PERIOD   25   TIME STEP   25
 
 SOLVING FOR HEAD 
                                                   Max.-Head-Change                         Max.-Flux-Residual
  Residual-Control   Outer-Iter.   Inner-Iter.     Column Row Layer    Maximum-Head-Change  Column Row Layer    Maximum-Flux-Residual          L2-NORM 
          0                 1           2             8    2     1       0.4774889371E-02      10    5    1         0.2471451631E+00      0.1320470763E+01
          0                 2           2             8    2     1       0.2145962070E-02       8    2    1         0.5573375681E-01      0.3122450888E+00
          0                 3           2             8    2     1       0.9644515312E-03       8    2    1         0.2504822787E-01      0.1112295535E+00
          0                 4           2             8    2     1       0.4334493952E-03       8    2    1         0.1125732788E-01      0.4761391160E-01
          0                 5           2             8    2     1       0.1948031682E-03       8    2    1         0.5059332786E-02      0.2115818042E-01
          0                 6           1             8    2     1       0.8754941360E-04       8    2    1         0.2273792316E-02      0.9458657266E-02
          0                 7           1             8    2     1       0.3934685932E-04       8    2    1         0.1021898946E-02      0.4232725211E-02
          0                 8           1             8    2     1       0.1768342927E-04       8    2    1         0.4592664347E-03      0.1894599492E-02
          0                 9           1             8    2     1       0.7947352935E-05       8    2    1         0.2064054025E-03      0.8481388941E-03

    ------------------------------------------------
       NWT REQUIRED            9 OUTER ITERATIONS 
       AND A TOTAL OF         14 INNER ITERATIONS.
    ------------------------------------------------

 NO OUTPUT CONTROL FOR STRESS PERIOD   25   TIME STEP   26
 
 SOLVING FOR HEAD 
                                                   Max.-Head-Change                         Max.-Flux-Residual
  Residual-Control   Outer-Iter.   Inner-Iter.     Column Row Layer    Maximum-Head-Change  Column Row Layer    Maximum-Flux-Residual          L2-NORM 
          0                 1           2             8    2     1       0.4772511358E-02      10    5    1         0.2471131960E+00      0.1319568819E+01
          0                 2           2             8    2     1       0.2144892991E-02       8    2    1         0.5570599845E-01      0.3120611688E+00
          0                 3           2             8    2     1       0.9639709050E-03       8    2    1         0.2503574857E-01      0.1111596893E+00
          0                 4           2             8    2     1       0.4332333190E-03       8    2    1         0.1125171756E-01      0.4758312218E-01
          0                 5           2             8    2     1       0.1947060263E-03       8    2    1         0.5056810545E-02      0.2114435436E-01
          0                 6           1             8    2     1       0.8750574071E-04       8    2    1         0.2272658378E-02      0.9452429153E-02
          0                 7           1             8    2     1       0.3932722485E-04       8    2    1         0.1021389153E-02      0.4229918244E-02
          0                 8           1             8    2     1       0.1767460210E-04       8    2    1         0.4590372432E-03      0.1893335373E-02
          0                 9           1             8    2     1       0.7943384423E-05       8    2    1         0.2063023602E-03      0.8475713504E-03

    ------------------------------------------------
       NWT REQUIRED            9 OUTER ITERATIONS 
       AND A TOTAL OF         14 INNER ITERATIONS.
    ------------------------------------------------

 NO OUTPUT CONTROL FOR STRESS PERIOD   25   TIME STEP   27
 
 SOLVING FOR HEAD 
                                                   Max.-Head-Change                         Max.-Flux-Residual
  Residual-Control   Outer-Iter.   Inner-Iter.     Column Row Layer    Maximum-Head-Change  Column Row Layer    Maximum-Flux-Residual          L2-NORM 
          0                 1           2             8    2     1       0.4770137523E-02      10    5    1         0.2470782664E+00      0.1318549989E+01
          0                 2           2             8    2     1       0.2143825612E-02       8    2    1         0.5567828799E-01      0.3118767475E+00
          0                 3           2             8    2     1       0.9634909647E-03       8    2    1         0.2502328876E-01      0.1110900587E+00
          0                 4           2             8    2     1       0.4330175167E-03       8    2    1         0.1124611508E-01      0.4755235710E-01
          0                 5           2             8    2     1       0.1946089915E-03       8    2    1         0.5054291418E-02      0.2113056082E-01
          0                 6           1             8    2     1       0.8746210959E-04       8    2    1         0.2271525664E-02      0.9446232603E-02
          0                 7           1             8    2     1       0.3930760589E-04       8    2    1         0.1020879828E-02      0.4227137298E-02
          0                 8           1             8    2     1       0.1766578043E-04       8    2    1         0.4588082260E-03      0.1892107522E-02
          0                 9           1             8    2     1       0.7939417662E-05       8    2    1         0.2061993825E-03      0.8470721214E-03

    ------------------------------------------------
       NWT REQUIRED            9 OUTER ITERATIONS 
       AND A TOTAL OF         14 INNER ITERATIONS.
    ------------------------------------------------

 NO OUTPUT CONTROL FOR STRESS PERIOD   25   TIME STEP   28
 
 SOLVING FOR HEAD 
                                                   Max.-Head-Change                         Max.-Flux-Residual
  Residual-Control   Outer-Iter.   Inner-Iter.     Column Row Layer    Maximum-Head-Change  Column Row Layer    Maximum-Flux-Residual          L2-NORM 
          0                 1           2             8    2     1       0.4767662564E-02      10    5    1         0.2470429922E+00      0.1317623238E+01
          0                 2           2             8    2     1       0.2142712895E-02       8    2    1         0.5564939773E-01      0.3116328220E+00
          0                 3           2             8    2     1       0.9629906974E-03       8    2    1         0.2501029997E-01      0.1110075025E+00
          0                 4           2             8    2     1       0.4327926003E-03       8    2    1         0.1124027543E-01      0.4751867318E-01
          0                 5           2             8    2     1       0.1945078703E-03       8    2    1         0.5051665958E-02      0.2111568338E-01
          0                 6           1             8    2     1       0.8741664615E-04       8    2    1         0.2270345277E-02      0.9439528421E-02
          0                 7           1             8    2     1       0.3928716581E-04       8    2    1         0.1020349134E-02      0.4224099825E-02
          0                 8           1             8    2     1       0.1765659060E-04       8    2    1         0.4585696272E-03      0.1890709040E-02
          0                 9           1             8    2     1       0.7935285827E-05       8    2    1         0.2060921077E-03      0.8463840512E-03

    ------------------------------------------------
       NWT REQUIRED            9 OUTER ITERATIONS 
       AND A TOTAL OF         14 INNER ITERATIONS.
    ------------------------------------------------

 NO OUTPUT CONTROL FOR STRESS PERIOD   25   TIME STEP   29
 
 SOLVING FOR HEAD 
                                                   Max.-Head-Change                         Max.-Flux-Residual
  Residual-Control   Outer-Iter.   Inner-Iter.     Column Row Layer    Maximum-Head-Change  Column Row Layer    Maximum-Flux-Residual          L2-NORM 
          0                 1           2             8    2     1       0.4765297028E-02      10    5    1         0.2470100115E+00      0.1315400736E+01
          0                 2           2             8    2     1       0.2141649245E-02       8    2    1         0.5562178415E-01      0.3112631900E+00
          0                 3           2             8    2     1       0.9625124323E-03       8    2    1         0.2499788368E-01      0.1109147276E+00
          0                 4           2             8    2     1       0.4325775503E-03       8    2    1         0.1123469251E-01      0.4748351079E-01
          0                 5           2             8    2     1       0.1944111742E-03       8    2    1         0.5049155623E-02      0.2110045794E-01
          0                 6           1             8    2     1       0.8737316710E-04       8    2    1         0.2269216515E-02      0.9432760093E-02
          0                 7           1             8    2     1       0.3926761563E-04       8    2    1         0.1019841589E-02      0.4221075044E-02
          0                 8           1             8    2     1       0.1764779970E-04       8    2    1         0.4583414086E-03      0.1889355017E-02
          0                 9           1             8    2     1       0.7931333072E-05       8    2    1         0.2059894905E-03      0.8457777786E-03

    ------------------------------------------------
       NWT REQUIRED            9 OUTER ITERATIONS 
       AND A TOTAL OF         14 INNER ITERATIONS.
    ------------------------------------------------

 NO OUTPUT CONTROL FOR STRESS PERIOD   25   TIME STEP   30



 STREAM LISTING     PERIOD     25   STEP       30

 LAYER ROW COL. STREAM  RCH.  FLOW INTO     FLOW TO   FLOW OUT OF   OVRLND.     DIRECT     STREAM       STREAM     STREAM     STREAM   STREAMBED  STREAMBED
                SEG.NO.  NO.  STRM. RCH.    AQUIFER    STRM. RCH.    RUNOFF     PRECIP       ET          HEAD       DEPTH      WIDTH   CONDCTNC.   GRADIENT

   1    1    1     1     1    3.5000E+00  8.3255E-02   3.4167E+00  0.000E+00  0.000E+00  0.000E+00  1.09371E+03  6.654E-01  5.047E+00  2.271E-02  1.222E+00
   1    2    2     1     2    3.4167E+00  1.2792E-01   3.2888E+00  0.000E+00  0.000E+00  0.000E+00  1.08872E+03  6.583E-01  4.995E+00  3.497E-02  1.219E+00
   1    3    3     1     3    3.2888E+00  1.0809E-01   3.1807E+00  0.000E+00  0.000E+00  0.000E+00  1.08307E+03  6.502E-01  4.935E+00  2.961E-02  1.217E+00
   1    3    4     1     4    3.1807E+00  9.8702E-02   3.0820E+00  0.000E+00  0.000E+00  0.000E+00  1.07805E+03  6.428E-01  4.882E+00  2.709E-02  1.214E+00
   1    4    5     2     1    1.0820E+00  0.0000E+00   1.0820E+00  0.000E+00  0.000E+00  0.000E+00  1.07212E+03  1.835E-01  1.200E+01  0.000E+00  1.061E+00
   1    5    6     2     2    1.0820E+00  0.0000E+00   1.0820E+00  0.000E+00  0.000E+00  0.000E+00  1.06669E+03  1.835E-01  1.200E+01  0.000E+00  1.061E+00
   1    6    6     2     3    1.0820E+00  0.0000E+00   1.0820E+00  0.000E+00  0.000E+00  0.000E+00  1.06198E+03  1.835E-01  1.200E+01  0.000E+00  1.061E+00
   1    7    6     2     4    1.0820E+00  0.0000E+00   1.0820E+00  0.000E+00  0.000E+00  0.000E+00  1.05726E+03  1.835E-01  1.200E+01  0.000E+00  1.061E+00
   1    8    6     2     5    1.0820E+00  0.0000E+00   1.0820E+00  0.000E+00  0.000E+00  0.000E+00  1.05254E+03  1.835E-01  1.200E+01  0.000E+00  1.061E+00
   1    3    5     3     1    2.0000E+00  2.8252E-01   1.7175E+00  0.000E+00  0.000E+00  0.000E+00  1.07555E+03  1.909E+00  9.636E+00  7.227E-02  1.955E+00
   1    3    6     3     2    1.7175E+00  2.4905E-01   1.4684E+00  0.000E+00  0.000E+00  0.000E+00  1.07264E+03  1.727E+00  8.909E+00  6.682E-02  1.864E+00
   1    3    7     3     3    1.4684E+00  1.9718E-01   1.2712E+00  0.000E+00  0.000E+00  0.000E+00  1.06987E+03  1.555E+00  8.218E+00  5.547E-02  1.777E+00
   1    4    8     3     4    1.2712E+00  2.2567E-01   1.0456E+00  0.000E+00  0.000E+00  0.000E+00  1.06682E+03  1.364E+00  7.455E+00  6.709E-02  1.682E+00
   1    5    8     3     5    1.0456E+00  1.5790E-01   8.8768E-01  0.000E+00  0.000E+00  0.000E+00  1.06362E+03  1.164E+00  6.655E+00  4.991E-02  1.582E+00
   1    6    8     3     6    8.8768E-01  5.5980E-02   8.3170E-01  0.000E+00  0.000E+00  0.000E+00  1.06158E+03  1.036E+00  6.145E+00  1.844E-02  1.518E+00
   1    5   10     4     1    1.0000E+01  0.0000E+00   1.0000E+01  0.000E+00  0.000E+00  0.000E+00  1.07837E+03  6.385E-01  1.000E+01  0.000E+00  1.213E+00
   1    5    9     4     2    1.0000E+01  0.0000E+00   1.0000E+01  0.000E+00  0.000E+00  0.000E+00  1.07155E+03  6.385E-01  1.000E+01  0.000E+00  1.213E+00
   1    6    8     4     3    1.0000E+01  0.0000E+00   1.0000E+01  0.000E+00  0.000E+00  0.000E+00  1.06382E+03  6.385E-01  1.000E+01  0.000E+00  1.213E+00
   1    6    8     5     1    1.0832E+01  2.3262E-01   1.0599E+01  0.000E+00  0.000E+00  0.000E+00  1.05869E+03  6.881E-01  1.577E+01  6.307E-02  1.229E+00
   1    7    7     5     2    1.0599E+01  2.8607E-01   1.0313E+01  0.000E+00  0.000E+00  0.000E+00  1.05418E+03  6.822E-01  1.554E+01  7.769E-02  1.227E+00
   1    8    7     5     3    1.0313E+01  1.9716E-01   1.0116E+01  0.000E+00  0.000E+00  0.000E+00  1.04993E+03  6.766E-01  1.532E+01  5.363E-02  1.226E+00
   1    8    6     5     4    1.0116E+01  1.3929E-01   9.9766E+00  0.000E+00  0.000E+00  0.000E+00  1.04692E+03  6.727E-01  1.517E+01  3.792E-02  1.224E+00
   1    9    6     6     1    1.1059E+01  0.0000E+00   1.1059E+01  0.000E+00  0.000E+00  0.000E+00  1.04348E+03  7.485E-01  1.200E+01  0.000E+00  1.249E+00
   1   10    7     6     2    1.1059E+01  0.0000E+00   1.1059E+01  0.000E+00  0.000E+00  0.000E+00  1.03893E+03  7.485E-01  1.200E+01  0.000E+00  1.249E+00
   1   11    7     6     3    1.1059E+01  0.0000E+00   1.1059E+01  0.000E+00  0.000E+00  0.000E+00  1.03438E+03  7.485E-01  1.200E+01  0.000E+00  1.249E+00
   1   12    7     6     4    1.1059E+01  0.0000E+00   1.1059E+01  0.000E+00  0.000E+00  0.000E+00  1.02984E+03  7.485E-01  1.200E+01  0.000E+00  1.249E+00
   1   13    7     6     5    1.1059E+01  0.0000E+00   1.1059E+01  0.000E+00  0.000E+00  0.000E+00  1.02666E+03  7.485E-01  1.200E+01  0.000E+00 -5.085E-03
   1   14    9     7     1    1.5000E+02  1.2928E+00   1.4871E+02  0.000E+00  0.000E+00  0.000E+00  1.03987E+03  2.288E+00  5.530E+01  5.593E-01  7.705E-01
   1   13    8     7     2    1.4871E+02  1.9083E+00   1.4680E+02  0.000E+00  0.000E+00  0.000E+00  1.03478E+03  2.279E+00  5.526E+01  6.148E-01  1.035E+00
   1   13    7     7     3    1.4680E+02  1.6843E+00   1.4511E+02  0.000E+00  0.000E+00  0.000E+00  1.02969E+03  2.270E+00  5.521E+01  5.584E-01  1.005E+00
   1   13    6     8     1    1.5617E+02  1.0375E+00   1.5514E+02  0.000E+00  0.000E+00  0.000E+00  1.02473E+03  2.856E+00  4.141E+01  4.220E-01  8.195E-01
   1   13    5     8     2    1.5514E+02  2.7050E-01   1.5487E+02  0.000E+00  0.000E+00  0.000E+00  1.01848E+03  2.852E+00  4.135E+01  4.214E-01  2.140E-01
   1   13    4     8     3    1.5487E+02 -2.2542E+00   1.5712E+02  0.000E+00  0.000E+00  0.000E+00  1.01223E+03  2.859E+00  4.145E+01  4.224E+00 -1.779E-01
   1   13    3     8     4    1.5712E+02 -3.6898E+00   1.6081E+02  0.000E+00  0.000E+00  0.000E+00  1.00600E+03  2.879E+00  4.174E+01  4.254E+00 -2.891E-01
   1   13    2     8     5    1.6081E+02 -2.6628E+00   1.6347E+02  0.000E+00  0.000E+00  0.000E+00  9.99775E+02  2.900E+00  4.205E+01  4.285E+00 -2.071E-01
   1   13    1     8     6    1.6347E+02 -2.0135E+00   1.6549E+02  0.000E+00  0.000E+00  0.000E+00  9.94791E+02  2.916E+00  4.228E+01  2.585E+00 -2.596E-01
   1    6    8     9     1    0.0000E+00  0.0000E+00   0.0000E+00  0.000E+00  0.000E+00  0.000E+00  1.07850E+03  0.000E+00  4.000E+00  0.000E+00  1.000E+00





UNSATURATED ZONE PACKAGE VOLUMETRIC BUDGET FOR  TIME STEP    30 STRESS PERIOD   25
  ------------------------------------------------------------------------------



     CUMULATIVE VOLUMES      L**3       RATES FOR THIS TIME STEP      L**3/T
     ------------------                 ------------------------

           IN:                                      IN:
           ---                                      ---
        INFILTRATION =    97686911.6921          INFILTRATION =           0.8475

          OUT:                                     OUT:
          ----                                     ----
              UZF ET =   621461174.2000                UZF ET =           0.2900
        UZF RECHARGE =  1472917931.1095          UZF RECHARGE =          19.0833

            IN - OUT = -1996692193.6173              IN - OUT =         -18.5258

          STORAGE:                                 STORAGE:
          --------                                 --------
      STORAGE CHANGE = -1996682462.8756        STORAGE CHANGE =         -18.5258

 PERCENT DISCREPANCY IS DIFFERENCE BETWEEN IN-OUT MINUS CHANGE IN STORAGE
 DIVIDED BY THE AVERAGE OF IN AND OUT TIMES 100

 PERCENT DISCREPANCY =          -0.00     PERCENT DISCREPANCY =           0.00






1
  VOLUMETRIC BUDGET FOR ENTIRE MODEL AT END OF TIME STEP   30, STRESS PERIOD  25
  ------------------------------------------------------------------------------

     CUMULATIVE VOLUMES      L**3       RATES FOR THIS TIME STEP      L**3/T
     ------------------                 ------------------------

           IN:                                      IN:
           ---                                      ---
             STORAGE =    68834080.0000               STORAGE =           0.1295
       CONSTANT HEAD =           0.0000         CONSTANT HEAD =           0.0000
               WELLS =           0.0000                 WELLS =           0.0000
     HEAD DEP BOUNDS =    18603646.0000       HEAD DEP BOUNDS =           0.2828
      STREAM LEAKAGE =   646189440.0000        STREAM LEAKAGE =           8.6348
        UZF RECHARGE =  1472916224.0000          UZF RECHARGE =          19.0833
               GW ET =           0.0000                 GW ET =           0.0000
     SURFACE LEAKAGE =           0.0000       SURFACE LEAKAGE =           0.0000

            TOTAL IN =  2206543360.0000              TOTAL IN =          28.1304

          OUT:                                     OUT:
          ----                                     ----
             STORAGE =  1478559872.0000               STORAGE =          17.2200
       CONSTANT HEAD =           0.0000         CONSTANT HEAD =           0.0000
               WELLS =     1235968.6250                 WELLS =           0.0000
     HEAD DEP BOUNDS =    18776654.0000       HEAD DEP BOUNDS =           0.2877
      STREAM LEAKAGE =   554984768.0000        STREAM LEAKAGE =          10.6203
        UZF RECHARGE =           0.0000          UZF RECHARGE =           0.0000
               GW ET =   152835040.0000                 GW ET =       1.8520E-10
     SURFACE LEAKAGE =           0.0000       SURFACE LEAKAGE =           0.0000

           TOTAL OUT =  2206392320.0000             TOTAL OUT =          28.1280

            IN - OUT =      151040.0000              IN - OUT =       2.4071E-03

 PERCENT DISCREPANCY =           0.01     PERCENT DISCREPANCY =           0.01






         TIME SUMMARY AT END OF TIME STEP   30 IN STRESS PERIOD   25
                    SECONDS     MINUTES      HOURS       DAYS        YEARS
                    -----------------------------------------------------------
   TIME STEP LENGTH  87600.      1460.0      24.333      1.0139     2.77588E-03
 STRESS PERIOD TIME 2.62800E+06  43800.      730.00      30.417     8.32763E-02
         TOTAL TIME 6.57000E+07 1.09500E+06  18250.      760.42      2.0819    
1

 Run end date and time (yyyy/mm/dd hh:mm:ss): 2017/08/08 17:42:27
 Elapsed run time: 13.551 Seconds

